[TITLE]
Monterusciello_acqueduct

[JUNCTIONS]
;ID Elev Demand
0 0.0 5650
1 0.0 4350
2 0.0 1650
3 0.0 1500
4 0.0 3000
5 0.0 50
6 0.0 1900
7 0.0 3400

[RESERVOIRS]
;ID Head

[TANKS]
;ID Elev InitLvl MinLvl MaxLvl Diam Volume

[COORDINATES]
;Node       X-Coord.    Y-Coord
0 14.087752211694749 40.87106754209441
1 14.08433873369228 40.87307791745429
2 14.094138419238096 40.86684734188889
3 14.090682919390476 40.875462172546044
4 14.097705884912957 40.87224286666923
5 14.095492415 40.8594046
6 14.095414580079138 40.87399322771672
7 14.096067071997735 40.876932235147635

[PIPES]
;ID Node1 Node2 Length Diam Roughness
0 0 1 440.64 500 130
1 0 2 851.43 500 130
2 0 3 587.54 500 130
3 2 4 719.47 500 130
4 2 5 841.45 500 130
5 3 6 551.08 500 130
6 4 6 320.72 500 130
7 6 7 334.87 500 130

[PUMPS]
;ID Node1 Node2 Parameters

[PATTERNS]
;ID   Multipliers
Pat1 [0, 1, 2, 3, 4, 5, 6, 7, 8, 9, 10, 11, 12, 13, 14, 15, 16, 17, 18, 19, 20, 21, 22, 23]
[CURVES]
;ID  X-Value  Y-Value

[QUALITY]
;Node InitQual

[REACTIONS]
Global Bulk  -1
Global Wall  0

[TIMES]
Hydraulic Timestep 1:00
Pattern Timestep 6:00

[END]