[TITLE]
/Users/conrad/Documents/EC/Course_deuxiemme_annee/Project_Inno/Projet_P5C006/Monterusciello_solution/Monterusciello_acqueduct

[JUNCTIONS]
;ID Elev Demand
0 76.0 0.11
1 51.0 0.11
2 105.5 0.11
3 50.0 0.11
4 92.5 0.11
6 77.0 0.11
7 58.5 0.11
8 85.11 0.11
9 90.55 0.11
10 76.44 0.11
11 85.19 0.11
12 75.53 0.11
13 78.85 0.11
14 96.31 0.11
15 89.56 0.11
16 98.27 0.11
17 90.52 0.11
18 87.74 0.11
19 105.83 0.11
20 81.61 0.11
21 83.36 0.11
22 79.56 0.11
23 86.89 0.11
24 74.28 0.11
25 79.61 0.11
26 80.28 0.11
27 81.53 0.11
28 81.82 0.11
29 81.41 0.11
30 87.64 0.11
31 77.93 0.11
32 80.5 0.11
33 83.82 0.11
34 80.43 0.11
35 86.89 0.11
36 76.17 0.11
37 76.73 0.11
38 70.47 0.11
39 71.11 0.11
40 70.78 0.11
41 71.15 0.11
42 66.58 0.11
43 71.04 0.11
44 75.39 0.11
45 70.24 0.11
46 126.06 0.11
47 125.84 0.11
48 123.17 0.11
49 124.3 0.11
50 123.63 0.11
51 123.3 0.11
52 121.53 0.11
53 119.77 0.11
54 117.96 0.11
55 94.12 0.11
56 110.47 0.11
57 93.73 0.11
58 87.98 0.11
59 93.73 0.11
60 94.38 0.11
61 109.74 0.11
62 90.09 0.11
63 108.75 0.11
64 97.53 0.11
65 113.34 0.11
66 108.02 0.11
67 88.56 0.11
68 105.19 0.11
69 104.53 0.11
70 88.89 0.11
71 85.27 0.11
72 87.44 0.11
73 90.66 0.11
74 83.53 0.11
75 88.79 0.11
76 87.36 0.11
77 86.2 0.11
78 88.89 0.11
79 89.14 0.11
80 87.83 0.11
81 90.85 0.11
82 89.52 0.11
83 79.73 0.11
84 81.33 0.11
85 74.61 0.11
86 73.48 0.11
87 75.87 0.11
88 70.62 0.11
89 74.84 0.11
90 70.1 0.11
91 73.65 0.11
92 69.64 0.11
93 74.01 0.11
94 69.89 0.11
95 74.89 0.11
96 79.62 0.11
97 70.9 0.11
98 71.86 0.11
99 69.79 0.11
100 88.96 0.11
101 79.14 0.11
102 80.43 0.11
103 64.8 0.11
104 61.53 0.11
105 61.13 0.11
106 61.44 0.11
107 69.93 0.11
108 60.41 0.11
109 57.17 0.11
110 57.91 0.11
111 57.92 0.11
112 54.92 0.11
113 60.62 0.11
114 58.65 0.11
115 55.76 0.11
116 54.5 0.11
117 56.66 0.11
118 55.46 0.11
119 56.02 0.11
120 55.44 0.11
121 55.68 0.11
122 53.91 0.11
123 54.76 0.11
124 53.16 0.11
125 55.06 0.11
126 55.04 0.11
127 71.44 0.11
128 70.05 0.11
129 68.57 0.11
130 52.5 0.11
131 53.58 0.11
132 54.17 0.11
133 61.71 0.11
134 59.39 0.11
135 65.27 0.11
136 62.26 0.11
137 58.92 0.11
138 60.54 0.11
139 66.19 0.11
140 64.79 0.11
141 66.56 0.11
142 59.69 0.11
143 62.11 0.11
144 55.37 0.11
145 56.27 0.11
146 56.3 0.11
147 55.65 0.11
148 55.17 0.11
149 55.71 0.11
150 56.11 0.11
151 56.58 0.11
152 57.85 0.11
153 56.98 0.11
154 56.42 0.11
155 58.46 0.11
156 59.67 0.11
157 55.61 0.11
158 59.31 0.11
159 60.52 0.11
160 63.03 0.11
161 60.49 0.11
162 66.26 0.11
163 66.7 0.11
164 67.83 0.11
165 68.91 0.11
166 69.31 0.11
167 64.81 0.11
168 63.19 0.11
169 64.61 0.11
170 67.49 0.11
171 67.77 0.11
172 65.95 0.11
173 68.15 0.11
174 64.76 0.11
175 66.42 0.11
176 59.31 0.11
177 62.08 0.11
178 61.5 0.11
179 63.18 0.11
180 63.09 0.11
181 62.6 0.11
182 60.77 0.11
183 62.56 0.11
184 64.92 0.11
185 65.93 0.11
186 65.99 0.11
187 80.68 0.11
188 73.3 0.11
189 83.84 0.11
190 74.02 0.11
191 84.07 0.11
192 86.08 0.11
193 90.19 0.11
194 93.27 0.11
195 85.21 0.11
196 94.46 0.11
197 83.52 0.11
198 85.57 0.11
199 91.76 0.11
200 97.4 0.11
201 95.94 0.11
202 99.99 0.11
203 88.44 0.11
204 92.01 0.11
205 86.24 0.11
206 93.73 0.11
207 92.89 0.11
208 86.77 0.11
209 90.04 0.11
210 95.61 0.11
211 97.4 0.11
212 101.26 0.11
213 97.86 0.11
214 97.05 0.11
215 101.17 0.11
216 100.69 0.11
217 99.61 0.11
218 97.55 0.11
219 107.04 0.11
220 98.67 0.11
221 110.83 0.11
222 112.15 0.11
223 98.64 0.11
224 107.06 0.11
225 98.79 0.11
226 98.45 0.11
227 110.57 0.11
228 113.32 0.11
229 114.22 0.11
230 114.23 0.11
231 111.95 0.11
232 114.48 0.11
233 109.3 0.11
234 112.9 0.11
235 115.89 0.11
236 116.41 0.11
237 118.07 0.11
238 115.89 0.11
239 118.21 0.11
240 114.78 0.11
241 112.29 0.11
242 96.34 0.11
243 94.56 0.11
244 98.85 0.11
245 98.5 0.11
246 92.85 0.11
247 89.08 0.11
248 91.15 0.11
249 87.7 0.11
250 96.69 0.11
251 78.24 0.11
252 87.52 0.11
253 95.17 0.11
254 77.62 0.11
255 77.3 0.11
256 71.84 0.11
257 77.66 0.11
258 71.64 0.11
259 45.57 0.11
260 48.64 0.11
261 39.99 0.11
262 40.61 0.11
263 51.88 0.11
264 48.56 0.11
265 39.1 0.11
266 37.12 0.11
267 37.39 0.11
268 40.63 0.11
269 68.35 0.11
270 68.07 0.11
271 68.04 0.11
272 67.04 0.11
273 68.55 0.11
274 72.68 0.11
275 66.4 0.11
276 69.44 0.11
277 72.91 0.11
278 78.42 0.11
279 56.49 0.11
280 51.73 0.11
281 55.35 0.11
282 53.73 0.11
283 51.3 0.11
284 44.72 0.11
285 42.81 0.11
286 50.66 0.11
287 49.68 0.11
288 47.88 0.11
289 47.63 0.11
290 46.86 0.11
291 47.34 0.11
292 44.5 0.11
293 45.01 0.11
294 43.57 0.11
295 39.62 0.11
296 41.44 0.11
297 39.94 0.11
298 35.54 0.11
299 33.19 0.11
300 35.92 0.11
301 32.76 0.11
302 36.73 0.11
303 33.0 0.11
304 37.03 0.11
305 32.65 0.11
306 31.55 0.11
307 33.11 0.11
308 27.3 0.11
309 28.58 0.11
310 37.05 0.11
311 33.06 0.11
312 29.16 0.11
313 33.49 0.11
314 33.6 0.11
315 30.13 0.11
316 34.6 0.11
317 42.55 0.11
318 41.03 0.11
319 40.15 0.11
320 38.42 0.11
321 37.75 0.11
322 37.93 0.11
323 37.0 0.11
324 35.33 0.11
325 32.03 0.11
326 30.79 0.11
327 28.89 0.11
328 27.67 0.11
329 26.46 0.11
330 26.02 0.11
331 25.65 0.11
332 71.72 0.11
333 68.5 0.11
334 71.91 0.11
335 67.59 0.11
336 81.43 0.11
337 76.64 0.11
338 87.44 0.11
339 76.32 0.11
340 73.69 0.11
341 91.06 0.11
342 84.62 0.11
343 69.74 0.11
344 67.02 0.11
345 72.36 0.11
346 67.34 0.11
347 73.73 0.11
348 59.63 0.11
349 60.05 0.11
350 64.36 0.11
351 60.15 0.11
352 68.64 0.11
353 66.22 0.11
354 71.25 0.11
355 71.77 0.11
356 75.14 0.11
357 75.19 0.11
358 77.3 0.11
359 67.56 0.11
360 76.46 0.11
361 72.54 0.11
362 77.0 0.11
363 82.85 0.11
364 77.02 0.11
365 82.44 0.11
366 87.09 0.11
367 83.0 0.11
368 81.35 0.11
369 110.17 0.11
370 109.46 0.11
371 117.97 0.11
372 108.88 0.11
373 121.43 0.11
374 108.38 0.11
375 107.0 0.11
376 107.3 0.11
377 106.96 0.11
378 106.55 0.11
379 106.0 0.11
380 102.76 0.11
381 110.57 0.11
382 100.58 0.11
383 99.45 0.11
384 109.82 0.11
385 108.58 0.11
386 105.92 0.11
387 111.11 0.11
388 109.99 0.11
389 111.94 0.11
390 110.31 0.11
391 111.89 0.11
392 112.27 0.11
393 111.2 0.11
394 112.13 0.11
395 111.64 0.11
396 112.26 0.11
397 114.28 0.11
398 111.56 0.11
399 114.23 0.11
400 109.7 0.11
401 60.34 0.11
402 61.39 0.11
403 58.77 0.11
404 65.61 0.11
405 53.57 0.11
406 62.75 0.11
407 64.41 0.11
408 63.84 0.11
409 64.95 0.11
410 49.08 0.11
411 49.1 0.11
412 46.46 0.11
413 45.44 0.11
414 47.2 0.11
415 42.13 0.11
416 49.79 0.11
417 51.74 0.11
418 48.85 0.11
419 52.34 0.11
420 51.73 0.11
421 67.2 0.11
422 38.62 0.11
423 44.62 0.11
424 34.14 0.11
425 40.71 0.11
426 38.93 0.11
427 66.81 0.11
428 48.26 0.11
429 48.78 0.11

[RESERVOIRS]
;ID Head

[TANKS]
;ID Elev InitLvl MinLvl MaxLvl Diam Volume
5 161.0 3 2 33 50 

[COORDINATES]
;Node       X-Coord.    Y-Coord
0 14.087752211694749 40.87106754209441
1 14.08433873369228 40.87307791745429
2 14.094138419238096 40.86684734188889
3 14.090682919390476 40.875462172546044
4 14.097705884912957 40.87224286666923
5 14.095492415 40.8594046
6 14.095414580079138 40.87399322771672
7 14.096067071997735 40.876932235147635
8 14.09078520416667 40.86995831666667
9 14.08993685 40.86955981250001
10 14.090369557142859 40.8707511
11 14.089532420000001 40.87002114
12 14.089923959999998 40.87113904
13 14.089920000000001 40.870522460000004
14 14.088744466666668 40.8691231
15 14.088671745454548 40.869522736363635
16 14.088811579999998 40.86870689999999
17 14.088933099999998 40.86955505454545
18 14.088465900000001 40.86972502222223
19 14.088776139999998 40.86733164
20 14.088537919999998 40.87022226
21 14.088428779999997 40.87001268
22 14.08864768 40.87051444
23 14.088536799999998 40.86978137142857
24 14.088653920000002 40.87112662
25 14.088330899999999 40.87051176
26 14.08897328 40.870515780000005
27 14.087229133333336 40.8705421
28 14.0865456 40.870547280000004
29 14.08768904 40.87050882
30 14.08717738 40.869931539999996
31 14.087093480000002 40.87098444
32 14.08632974 40.8705992
33 14.08761728 40.8700065
34 14.08801594 40.870507759999995
35 14.087183828571428 40.8697678
36 14.08709014 40.871208919999994
37 14.08769562 40.87111826
38 14.087072319999999 40.87167194
39 14.087683860000002 40.871676
40 14.08662842 40.87166989999999
41 14.08736202 40.871667880000004
42 14.086154627272727 40.87215936363637
43 14.08632802 40.87166989999999
44 14.086423060000001 40.871126700000005
45 14.08599812 40.87166179999999
46 14.08368266 40.86672626
47 14.08401284 40.8667248
48 14.083674259999999 40.86729444
49 14.08434392 40.86673172
50 14.08334272 40.867291279999996
51 14.084664179999999 40.866736059999994
52 14.084996760000001 40.866739759999994
53 14.085008640000002 40.86730804
54 14.08534314 40.86730784
55 14.084766519999999 40.86909834
56 14.08710834 40.86731947999999
57 14.085389020000003 40.86916796
58 14.08475938 40.8695872
59 14.08507576 40.86916718
60 14.084451000000001 40.86909867999999
61 14.08743496 40.867319880000004
62 14.085381180000002 40.8695923
63 14.087763200000001 40.867329999999995
64 14.087389000000002 40.86894924
65 14.0873323 40.86677016
66 14.088104239999998 40.8673281
67 14.087400109090908 40.86954295454545
68 14.08907686 40.86734027999999
69 14.089326840000002 40.867339959999995
70 14.087033309090911 40.86954023636364
71 14.08626788 40.870032779999995
72 14.087193999999998 40.86970876666666
73 14.08565596 40.86961846
74 14.086323680000001 40.87026202
75 14.087661300000002 40.869545154545456
76 14.087811499999999 40.86971054285714
77 14.087813614285713 40.8697773
78 14.08803829090909 40.86954794545455
79 14.08830030909091 40.86955013636364
80 14.089205044444446 40.86978138888889
81 14.089306990909092 40.869557863636366
82 14.089086457142857 40.86970448571429
83 14.089606799999999 40.87052112
84 14.08600482 40.87053204
85 14.0860142 40.8711446
86 14.0856977 40.871136480000004
87 14.08800844 40.87112146
88 14.08801646 40.871676
89 14.088333119999998 40.87112336
90 14.088331540000002 40.871920540000005
91 14.08896776 40.871132300000006
92 14.0886415 40.87192764
93 14.08929166 40.871134
94 14.088963340000001 40.87191954
95 14.089606239999998 40.87113572
96 14.08929004 40.87051846
97 14.089285219999999 40.87191954
98 14.089758899999998 40.871636620000004
99 14.089893025000002 40.872140400000006
100 14.085072779999999 40.869587579999994
101 14.085387919999999 40.870540180000006
102 14.085704419999999 40.87053204
103 14.088109238095237 40.872500752380965
104 14.08807908 40.87307817999999
105 14.08782146 40.87307838
106 14.08831726 40.87306074
107 14.090565983333333 40.87184666666666
108 14.087544399999999 40.87307314
109 14.087589844444445 40.87329187777778
110 14.0878039 40.87322424
111 14.087804020000002 40.87332202
112 14.087592840000003 40.87354922
113 14.08857568 40.87326272
114 14.088580566666668 40.87356438888889
115 14.087800719999999 40.873542979999996
116 14.08780404 40.873645980000006
117 14.08808154 40.87354852
118 14.0880831 40.87365462
119 14.088318999999998 40.87361316
120 14.094465988888889 40.87852827777778
121 14.094431528571429 40.87842427142857
122 14.0946326 40.878629100000005
123 14.094325519999998 40.8778917
124 14.093877020000003 40.87792903999999
125 14.0943327 40.877634539999995
126 14.09461586 40.87788912
127 14.099913520000001 40.8758101
128 14.09943076 40.875692799999996
129 14.098953980000001 40.87568438
130 14.09324718 40.877713240000006
131 14.093886419999999 40.87762166
132 14.09355088 40.877082220000005
133 14.09681932 40.87672078
134 14.09608206 40.876494060000006
135 14.097751207692305 40.87653970769232
136 14.097087179999999 40.87772188
137 14.095601677777777 40.876550811111116
138 14.09606712 40.87566516
139 14.09794774 40.875682440000006
140 14.09793262 40.87702034
141 14.098426039999998 40.876477300000005
142 14.096661200000003 40.87774776
143 14.09710222 40.87796414
144 14.094639879999999 40.87761549999999
145 14.094329120000001 40.87686884
146 14.09331808888889 40.87652808888888
147 14.09510588 40.87763532
148 14.095094419999999 40.87790642
149 14.095390259999999 40.877899819999996
150 14.095379459999998 40.87763776
151 14.0958289 40.87764974
152 14.095526377777777 40.877030633333334
153 14.095800079999998 40.87792226
154 14.095517179999998 40.87826345999999
155 14.096052219999999 40.87702958
156 14.096624600000002 40.87795538
157 14.09552914 40.87837116
158 14.0966958 40.87835692
159 14.09533228 40.87565752
160 14.09654596 40.87566774
161 14.095085980000002 40.87565044
162 14.09748928 40.87567732
163 14.098229 40.875675179999995
164 14.098673920000001 40.87570514
165 14.099095519999997 40.87643206
166 14.09934632 40.876705539999996
167 14.09818494 40.87768728
168 14.09787424 40.877909120000005
169 14.098286980000001 40.87794672
170 14.09899886 40.87693946
171 14.099212320000001 40.877285259999994
172 14.098691800000001 40.87765257777777
173 14.09945904 40.877905
174 14.09856874 40.87777838
175 14.099089519999998 40.87813698
176 14.096661219999998 40.878494
177 14.097128299999998 40.87822356
178 14.09720972 40.87849408
179 14.097681115789475 40.87802686842105
180 14.097776640000001 40.87828456
181 14.09751664 40.87846906
182 14.097526460000001 40.87864032
183 14.097820480000001 40.87848288
184 14.0987903 40.878154
185 14.09903266 40.87840838
186 14.099178899999998 40.87855518
187 14.099349559999999 40.87445934
188 14.099342279999998 40.875014879999995
189 14.098888850000002 40.87381563333333
190 14.0984256 40.87483955
191 14.09878762 40.87362006
192 14.099011916666667 40.8736883
193 14.096153320000003 40.87223998
194 14.096296599999999 40.87191714
195 14.0971477 40.87274416666667
196 14.096290239999998 40.87156298
197 14.097118533333331 40.87291481111112
198 14.097261120000002 40.872653979999995
199 14.095480279999999 40.87155252
200 14.0972217 40.87133622
201 14.097457079999998 40.87160792
202 14.09732238 40.871104939999995
203 14.09852884 40.87273294
204 14.09879764 40.872664220000004
205 14.09908112 40.87348994
206 14.099181519999998 40.87250368
207 14.098612385714286 40.87235078571428
208 14.09723702 40.87254726
209 14.09739146 40.872309820000005
210 14.097813740000001 40.87174476
211 14.097603855555555 40.87126776666666
212 14.097760060000002 40.87097474
213 14.097924419999998 40.8713159
214 14.098013500000002 40.871509919999994
215 14.09746912 40.87086318
216 14.098031119999998 40.87103436
217 14.09828028 40.87107072
218 14.098167759999999 40.87136484
219 14.098348759999999 40.87051418
220 14.09865656 40.87146994
221 14.097797599999998 40.869773339999995
222 14.098670783333333 40.8701534
223 14.09939516 40.87178078
224 14.09943334 40.87088552
225 14.09961616 40.87177412
226 14.099345379999999 40.87198406
227 14.09915562 40.8704601
228 14.0988946 40.87003856
229 14.0987449 40.8699271
230 14.098976099999998 40.86982652
231 14.097747919999998 40.86928836
232 14.0979027 40.86904684
233 14.097406979999999 40.86925166
234 14.098271975000001 40.8693974
235 14.098301800000002 40.86909566
236 14.098484533333334 40.8690098
237 14.098186500000002 40.86865652
238 14.099086 40.86946818
239 14.097876580000001 40.86851638
240 14.099026885714284 40.86965375714286
241 14.0973682 40.86889198
242 14.099330120000001 40.8722822
243 14.099703120000001 40.872499160000004
244 14.099662180000001 40.87197174
245 14.100116659999998 40.8718608
246 14.08352118 40.86958338
247 14.0838222 40.86957796
248 14.083161185714285 40.87014908571429
249 14.084131039999999 40.86958204
250 14.083821940000002 40.869031160000006
251 14.083800020000002 40.8705199
252 14.084443679999998 40.8695805
253 14.084132979999998 40.86903434
254 14.084127259999999 40.8705199
255 14.084449119999999 40.87052394
256 14.0841152 40.87112229999999
257 14.084749539999999 40.870528
258 14.08380674 40.871120239999996
259 14.08352764 40.8739391
260 14.08368028 40.873479960000004
261 14.082802599999999 40.874752439999995
262 14.08407924 40.87476072
263 14.083687500000002 40.873111640000005
264 14.08324986 40.873469820000004
265 14.08220068 40.87470766
266 14.082806299999998 40.87507188
267 14.08407124 40.875083720000006
268 14.084654480000001 40.87475932
269 14.084545885714288 40.871441342857146
270 14.08449998 40.87155455999999
271 14.08505806 40.8716628
272 14.08410982 40.8716496
273 14.08536776 40.87166179999999
274 14.08506736 40.871136480000004
275 14.0837987 40.8716476
276 14.08569502 40.87166584
277 14.08537582 40.87114054
278 14.085076760000002 40.87053204
279 14.085705542857143 40.87312177142858
280 14.084653620000001 40.87327606
281 14.085923184615384 40.873380315384615
282 14.08411136 40.87311482
283 14.083259000000002 40.87311164
284 14.0859926 40.87470085714286
285 14.08602842222222 40.874941111111106
286 14.08282776 40.873150499999994
287 14.08222616 40.87314404000001
288 14.082829379999998 40.87346854
289 14.0817954 40.87310148
290 14.08222672 40.87346170000001
291 14.08133676 40.87309994
292 14.08220526 40.873897459999995
293 14.081339980000001 40.87349522
294 14.08137606 40.87389262000001
295 14.081322599999998 40.87438856
296 14.082207019999998 40.874387940000005
297 14.08179362 40.87437912
298 14.08131976 40.87506432
299 14.08085684 40.87506448
300 14.08178464 40.875072519999996
301 14.08119014 40.87568606
302 14.08220278 40.87507362
303 14.08223864 40.875676920000004
304 14.083217020000001 40.87511669999999
305 14.08283646 40.87574758
306 14.07985376 40.87540922
307 14.081705739999999 40.875676580000004
308 14.081281719999998 40.877409820000004
309 14.082018260000002 40.87742978
310 14.0836555 40.87506914
311 14.083199220000001 40.8757474
312 14.08274692 40.87743504
313 14.083582479999999 40.8757436
314 14.0839506 40.875736419999996
315 14.083518900000001 40.877434660000006
316 14.08432086 40.875735500000005
317 14.08529034 40.87466746
318 14.085357577777778 40.87494303333333
319 14.085572619999999 40.87516386
320 14.0861768 40.87571934
321 14.085433080000001 40.87573148
322 14.0858053 40.87572596
323 14.085064359999999 40.87572778
324 14.08469316 40.8757342
325 14.084992779999999 40.87751114
326 14.08425102 40.87743561999999
327 14.082726560000001 40.878206920000004
328 14.08196672 40.87823406
329 14.081264780000001 40.878242619999995
330 14.08045066 40.87815009999999
331 14.08014838 40.87833014
332 14.09753288 40.87493096
333 14.09639332 40.875045140000005
334 14.0963974 40.87462246
335 14.095952700000002 40.87504130000001
336 14.094003076923077 40.87230911538461
337 14.093991160000002 40.873137740000004
338 14.09547978 40.87224438
339 14.094583080000001 40.87345274
340 14.09356578 40.873175720000006
341 14.095476679999999 40.87189164
342 14.0954692 40.872587880000005
343 14.093281533333338 40.8741658095238
344 14.093267220000001 40.87458628
345 14.093297380000001 40.873601719999996
346 14.09370706 40.87459776
347 14.09371342 40.87356686
348 14.093966939999998 40.87564742
349 14.09433726 40.87565074
350 14.09411778 40.87502836
351 14.09460092 40.87565112
352 14.094136600000002 40.87459846
353 14.09509964 40.875032499999996
354 14.09510242 40.874615240000004
355 14.095955100000001 40.87461628
356 14.09638514 40.87424608
357 14.0959824 40.87421332
358 14.09633354 40.87394252
359 14.09463183846154 40.874816038461546
360 14.09512282 40.873958040000005
361 14.094151744444446 40.87418184444444
362 14.09589522 40.87397797999999
363 14.0963292 40.87322674
364 14.09558884 40.87393858
365 14.095904480000002 40.8732319
366 14.0961411 40.87262938
367 14.09564996 40.87316504
368 14.09524566 40.87320498
369 14.096318019999998 40.868386799999996
370 14.095968719999998 40.86838324
371 14.097566079999998 40.86840828
372 14.09559658 40.8683969
373 14.097972519999999 40.868057820000004
374 14.095244099999999 40.86838538
375 14.094872599999999 40.868396180000005
376 14.094507479999999 40.86838522
377 14.094029639999999 40.868238659999996
378 14.09373282 40.86830218
379 14.09342566 40.868151700000006
380 14.093439720000001 40.86861256
381 14.094012179999998 40.86643146
382 14.09217982857143 40.86796135714286
383 14.091947540000001 40.86795432
384 14.093466800000002 40.865685840000005
385 14.0935545 40.865494940000005
386 14.093576333333333 40.866140316666666
387 14.09373802 40.86558934
388 14.093727159999997 40.86616838
389 14.093797411111108 40.86540986666667
390 14.093891079999997 40.86574528
391 14.093911420000001 40.86550502
392 14.094134611111109 40.86566213333334
393 14.094054299999998 40.86599925714286
394 14.094150379999999 40.865450380000006
395 14.094442144444447 40.865831299999996
396 14.09460202857143 40.86623378571429
397 14.09488714 40.865626199999994
398 14.094343660000002 40.86635184000001
399 14.09489548 40.86609408
400 14.09370522 40.86644634
401 14.093016420000001 40.87529852
402 14.091602533333335 40.87419102222222
403 14.092950060000001 40.87581576
404 14.090786599999998 40.87356896
405 14.092285971428572 40.87667322857143
406 14.089957340000002 40.874020140000006
407 14.089787359999999 40.87360446
408 14.08937128 40.873612800000004
409 14.09021648 40.87360124
410 14.090769940000001 40.87644902000001
411 14.088858820000002 40.87574964
412 14.088897620000001 40.87643758
413 14.0885526 40.87643284
414 14.0892948 40.8764359
415 14.08901678 40.8782969
416 14.091453142857143 40.876773914285714
417 14.092155680000001 40.87709466
418 14.090391359999998 40.8764503
419 14.092238660000001 40.87693316
420 14.092349357142856 40.87712292857143
421 14.09078452 40.87320523999999
422 14.087080699999998 40.87657258
423 14.08816232 40.87642888
424 14.08638828 40.87810707999999
425 14.088270400000003 40.878295679999994
426 14.08751474 40.878231140000004
427 14.09023316 40.8732021
428 14.08965074 40.87642624
429 14.090039 40.8764395

[PIPES]
;ID Node1 Node2 Length Diameter Roughness MinorLoss Status SIZINGDATA Bulkcoeff. Wallcoeff. Diam.Zone Material IsSizable D.Coeff. Demand Patt Loss Coeff. Loss Patt
0 0 2 851.43 60 130 0 Open
;SIZINGDATA "" "" 1 FFD##K9 Yes 1.0 "" 1.0 ""
1 0 37 8.45 60 120 0 Open
;SIZINGDATA "" "" 2 FFD##K9 Yes 1.0 "" 1.0 ""
2 0 3 587.54 60 130 0 Open
;SIZINGDATA "" "" 1 FFD##K9 Yes 1.0 "" 1.0 ""
3 0 1 440.64 60 130 0 Open
;SIZINGDATA "" "" 1 FFD##K9 Yes 1.0 "" 1.0 ""
4 1 280 41.38 60 120 0 Open
;SIZINGDATA "" "" 2 FFD##K9 Yes 1.0 "" 1.0 ""
5 2 5 841.45 60 130 0 Open
;SIZINGDATA "" "" 1 FFD##K9 Yes 1.0 "" 1.0 ""
6 2 381 48.34 60 120 0 Open
;SIZINGDATA "" "" 2 FFD##K9 Yes 1.0 "" 1.0 ""
7 2 377 155.23 60 120 0 Open
;SIZINGDATA "" "" 2 FFD##K9 Yes 1.0 "" 1.0 ""
8 3 6 551.08 60 130 0 Open
;SIZINGDATA "" "" 1 FFD##K9 Yes 1.0 "" 1.0 ""
9 3 406 179.56 60 120 0 Open
;SIZINGDATA "" "" 2 FFD##K9 Yes 1.0 "" 1.0 ""
10 4 209 35.76 60 120 0 Open
;SIZINGDATA "" "" 2 FFD##K9 Yes 1.0 "" 1.0 ""
11 4 6 320.72 60 130 0 Open
;SIZINGDATA "" "" 1 FFD##K9 Yes 1.0 "" 1.0 ""
12 6 360 32.69 60 120 0 Open
;SIZINGDATA "" "" 2 FFD##K9 Yes 1.0 "" 1.0 ""
13 6 7 334.87 60 130 0 Open
;SIZINGDATA "" "" 1 FFD##K9 Yes 1.0 "" 1.0 ""
14 7 155 10.95 60 120 0 Open
;SIZINGDATA "" "" 2 FFD##K9 Yes 1.0 "" 1.0 ""
15 8 10 99.57 60 120 0 Open
;SIZINGDATA "" "" 2 FFD##K9 Yes 1.0 "" 1.0 ""
16 9 11 68.24 60 120 0 Open
;SIZINGDATA "" "" 2 FFD##K9 Yes 1.0 "" 1.0 ""
17 10 12 65.72 60 120 0 Open
;SIZINGDATA "" "" 2 FFD##K9 Yes 1.0 "" 1.0 ""
18 11 83 56.23 60 120 0 Open
;SIZINGDATA "" "" 2 FFD##K9 Yes 1.0 "" 1.0 ""
19 11 80 45.13 60 120 0 Open
;SIZINGDATA "" "" 2 FFD##K9 Yes 1.0 "" 1.0 ""
20 12 95 35.34 60 120 0 Open
;SIZINGDATA "" "" 2 FFD##K9 Yes 1.0 "" 1.0 ""
21 13 83 34.84 60 120 0 Open
;SIZINGDATA "" "" 2 FFD##K9 Yes 1.0 "" 1.0 ""
22 14 15 45.18 60 120 0 Open
;SIZINGDATA "" "" 2 FFD##K9 Yes 1.0 "" 1.0 ""
23 14 16 46.89 60 120 0 Open
;SIZINGDATA "" "" 2 FFD##K9 Yes 1.0 "" 1.0 ""
24 15 18 32.1 60 120 0 Open
;SIZINGDATA "" "" 2 FFD##K9 Yes 1.0 "" 1.0 ""
25 15 17 29.29 60 120 0 Open
;SIZINGDATA "" "" 2 FFD##K9 Yes 1.0 "" 1.0 ""
26 17 82 23.82 60 120 0 Open
;SIZINGDATA "" "" 2 FFD##K9 Yes 1.0 "" 1.0 ""
27 18 23 10.07 60 120 0 Open
;SIZINGDATA "" "" 2 FFD##K9 Yes 1.0 "" 1.0 ""
28 18 79 26.79 60 120 0 Open
;SIZINGDATA "" "" 2 FFD##K9 Yes 1.0 "" 1.0 ""
29 19 68 33.46 60 120 0 Open
;SIZINGDATA "" "" 2 FFD##K9 Yes 1.0 "" 1.0 ""
30 19 66 74.74 60 120 0 Open
;SIZINGDATA "" "" 2 FFD##K9 Yes 1.0 "" 1.0 ""
31 20 22 34.72 60 120 0 Open
;SIZINGDATA "" "" 2 FFD##K9 Yes 1.0 "" 1.0 ""
32 21 23 28.4 60 120 0 Open
;SIZINGDATA "" "" 2 FFD##K9 Yes 1.0 "" 1.0 ""
33 22 25 35.24 60 120 0 Open
;SIZINGDATA "" "" 2 FFD##K9 Yes 1.0 "" 1.0 ""
34 22 26 36.22 60 120 0 Open
;SIZINGDATA "" "" 2 FFD##K9 Yes 1.0 "" 1.0 ""
35 24 89 35.68 60 120 0 Open
;SIZINGDATA "" "" 2 FFD##K9 Yes 1.0 "" 1.0 ""
36 24 92 89.11 60 120 0 Open
;SIZINGDATA "" "" 2 FFD##K9 Yes 1.0 "" 1.0 ""
37 25 89 68.03 60 120 0 Open
;SIZINGDATA "" "" 2 FFD##K9 Yes 1.0 "" 1.0 ""
38 25 34 35.04 60 120 0 Open
;SIZINGDATA "" "" 2 FFD##K9 Yes 1.0 "" 1.0 ""
39 26 91 68.58 60 120 0 Open
;SIZINGDATA "" "" 2 FFD##K9 Yes 1.0 "" 1.0 ""
40 27 29 51.29 60 120 0 Open
;SIZINGDATA "" "" 2 FFD##K9 Yes 1.0 "" 1.0 ""
41 27 31 51.46 60 120 0 Open
;SIZINGDATA "" "" 2 FFD##K9 Yes 1.0 "" 1.0 ""
42 28 32 24.7 60 120 0 Open
;SIZINGDATA "" "" 2 FFD##K9 Yes 1.0 "" 1.0 ""
43 29 34 36.36 60 120 0 Open
;SIZINGDATA "" "" 2 FFD##K9 Yes 1.0 "" 1.0 ""
44 30 33 49.64 60 120 0 Open
;SIZINGDATA "" "" 2 FFD##K9 Yes 1.0 "" 1.0 ""
45 31 36 24.97 60 120 0 Open
;SIZINGDATA "" "" 2 FFD##K9 Yes 1.0 "" 1.0 ""
46 32 44 59.59 60 120 0 Open
;SIZINGDATA "" "" 2 FFD##K9 Yes 1.0 "" 1.0 ""
47 32 74 37.51 60 120 0 Open
;SIZINGDATA "" "" 2 FFD##K9 Yes 1.0 "" 1.0 ""
48 33 77 33.57 60 120 0 Open
;SIZINGDATA "" "" 2 FFD##K9 Yes 1.0 "" 1.0 ""
49 34 87 68.27 60 120 0 Open
;SIZINGDATA "" "" 2 FFD##K9 Yes 1.0 "" 1.0 ""
50 35 72 6.66 60 120 0 Open
;SIZINGDATA "" "" 2 FFD##K9 Yes 1.0 "" 1.0 ""
51 36 37 68.1 60 120 0 Open
;SIZINGDATA "" "" 2 FFD##K9 Yes 1.0 "" 1.0 ""
52 36 38 51.54 60 120 0 Open
;SIZINGDATA "" "" 2 FFD##K9 Yes 1.0 "" 1.0 ""
53 38 41 32.23 60 120 0 Open
;SIZINGDATA "" "" 2 FFD##K9 Yes 1.0 "" 1.0 ""
54 39 41 35.81 60 120 0 Open
;SIZINGDATA "" "" 2 FFD##K9 Yes 1.0 "" 1.0 ""
55 39 88 37.0 60 120 0 Open
;SIZINGDATA "" "" 2 FFD##K9 Yes 1.0 "" 1.0 ""
56 40 43 33.41 60 120 0 Open
;SIZINGDATA "" "" 2 FFD##K9 Yes 1.0 "" 1.0 ""
57 42 43 57.76 60 120 0 Open
;SIZINGDATA "" "" 2 FFD##K9 Yes 1.0 "" 1.0 ""
58 43 45 36.71 60 120 0 Open
;SIZINGDATA "" "" 2 FFD##K9 Yes 1.0 "" 1.0 ""
59 44 85 45.52 60 120 0 Open
;SIZINGDATA "" "" 2 FFD##K9 Yes 1.0 "" 1.0 ""
60 45 85 57.56 60 120 0 Open
;SIZINGDATA "" "" 2 FFD##K9 Yes 1.0 "" 1.0 ""
61 46 47 36.73 60 120 0 Open
;SIZINGDATA "" "" 2 FFD##K9 Yes 1.0 "" 1.0 ""
62 46 48 63.21 60 120 0 Open
;SIZINGDATA "" "" 2 FFD##K9 Yes 1.0 "" 1.0 ""
63 47 49 36.83 60 120 0 Open
;SIZINGDATA "" "" 2 FFD##K9 Yes 1.0 "" 1.0 ""
64 48 50 36.88 60 120 0 Open
;SIZINGDATA "" "" 2 FFD##K9 Yes 1.0 "" 1.0 ""
65 49 51 35.63 60 120 0 Open
;SIZINGDATA "" "" 2 FFD##K9 Yes 1.0 "" 1.0 ""
66 51 52 37.0 60 120 0 Open
;SIZINGDATA "" "" 2 FFD##K9 Yes 1.0 "" 1.0 ""
67 52 53 63.22 60 120 0 Open
;SIZINGDATA "" "" 2 FFD##K9 Yes 1.0 "" 1.0 ""
68 53 55 200.95 60 120 0 Open
;SIZINGDATA "" "" 2 FFD##K9 Yes 1.0 "" 1.0 ""
69 53 54 37.21 60 120 0 Open
;SIZINGDATA "" "" 2 FFD##K9 Yes 1.0 "" 1.0 ""
70 54 57 206.97 60 120 0 Open
;SIZINGDATA "" "" 2 FFD##K9 Yes 1.0 "" 1.0 ""
71 54 56 196.35 60 120 0 Open
;SIZINGDATA "" "" 2 FFD##K9 Yes 1.0 "" 1.0 ""
72 55 59 35.24 60 120 0 Open
;SIZINGDATA "" "" 2 FFD##K9 Yes 1.0 "" 1.0 ""
73 55 58 54.38 60 120 0 Open
;SIZINGDATA "" "" 2 FFD##K9 Yes 1.0 "" 1.0 ""
74 55 60 35.1 60 120 0 Open
;SIZINGDATA "" "" 2 FFD##K9 Yes 1.0 "" 1.0 ""
75 56 61 36.33 60 120 0 Open
;SIZINGDATA "" "" 2 FFD##K9 Yes 1.0 "" 1.0 ""
76 57 62 47.21 60 120 0 Open
;SIZINGDATA "" "" 2 FFD##K9 Yes 1.0 "" 1.0 ""
77 58 100 34.86 60 120 0 Open
;SIZINGDATA "" "" 2 FFD##K9 Yes 1.0 "" 1.0 ""
78 61 64 181.31 60 120 0 Open
;SIZINGDATA "" "" 2 FFD##K9 Yes 1.0 "" 1.0 ""
79 61 63 36.53 60 120 0 Open
;SIZINGDATA "" "" 2 FFD##K9 Yes 1.0 "" 1.0 ""
80 61 65 62.2 60 120 0 Open
;SIZINGDATA "" "" 2 FFD##K9 Yes 1.0 "" 1.0 ""
81 62 101 105.44 60 120 0 Open
;SIZINGDATA "" "" 2 FFD##K9 Yes 1.0 "" 1.0 ""
82 62 73 30.7 60 120 0 Open
;SIZINGDATA "" "" 2 FFD##K9 Yes 1.0 "" 1.0 ""
83 63 66 37.93 60 120 0 Open
;SIZINGDATA "" "" 2 FFD##K9 Yes 1.0 "" 1.0 ""
84 64 67 66.05 60 120 0 Open
;SIZINGDATA "" "" 2 FFD##K9 Yes 1.0 "" 1.0 ""
85 67 72 29.42 60 120 0 Open
;SIZINGDATA "" "" 2 FFD##K9 Yes 1.0 "" 1.0 ""
86 67 75 29.05 60 120 0 Open
;SIZINGDATA "" "" 2 FFD##K9 Yes 1.0 "" 1.0 ""
87 68 69 27.81 60 120 0 Open
;SIZINGDATA "" "" 2 FFD##K9 Yes 1.0 "" 1.0 ""
88 70 72 25.9 60 120 0 Open
;SIZINGDATA "" "" 2 FFD##K9 Yes 1.0 "" 1.0 ""
89 71 74 26.24 60 120 0 Open
;SIZINGDATA "" "" 2 FFD##K9 Yes 1.0 "" 1.0 ""
90 75 76 24.85 60 120 0 Open
;SIZINGDATA "" "" 2 FFD##K9 Yes 1.0 "" 1.0 ""
91 76 77 7.43 60 120 0 Open
;SIZINGDATA "" "" 2 FFD##K9 Yes 1.0 "" 1.0 ""
92 76 78 31.04 60 120 0 Open
;SIZINGDATA "" "" 2 FFD##K9 Yes 1.0 "" 1.0 ""
93 78 79 29.15 60 120 0 Open
;SIZINGDATA "" "" 2 FFD##K9 Yes 1.0 "" 1.0 ""
94 80 81 27.33 60 120 0 Open
;SIZINGDATA "" "" 2 FFD##K9 Yes 1.0 "" 1.0 ""
95 80 82 15.72 60 120 0 Open
;SIZINGDATA "" "" 2 FFD##K9 Yes 1.0 "" 1.0 ""
96 83 96 35.23 60 120 0 Open
;SIZINGDATA "" "" 2 FFD##K9 Yes 1.0 "" 1.0 ""
97 83 95 68.36 60 120 0 Open
;SIZINGDATA "" "" 2 FFD##K9 Yes 1.0 "" 1.0 ""
98 84 85 68.14 60 120 0 Open
;SIZINGDATA "" "" 2 FFD##K9 Yes 1.0 "" 1.0 ""
99 85 86 35.22 60 120 0 Open
;SIZINGDATA "" "" 2 FFD##K9 Yes 1.0 "" 1.0 ""
100 86 102 67.24 60 120 0 Open
;SIZINGDATA "" "" 2 FFD##K9 Yes 1.0 "" 1.0 ""
101 90 92 34.49 60 120 0 Open
;SIZINGDATA "" "" 2 FFD##K9 Yes 1.0 "" 1.0 ""
102 90 103 69.11 60 120 0 Open
;SIZINGDATA "" "" 2 FFD##K9 Yes 1.0 "" 1.0 ""
103 91 94 87.57 60 120 0 Open
;SIZINGDATA "" "" 2 FFD##K9 Yes 1.0 "" 1.0 ""
104 93 96 68.47 60 120 0 Open
;SIZINGDATA "" "" 2 FFD##K9 Yes 1.0 "" 1.0 ""
105 94 97 35.8 60 120 0 Open
;SIZINGDATA "" "" 2 FFD##K9 Yes 1.0 "" 1.0 ""
106 95 98 58.25 60 120 0 Open
;SIZINGDATA "" "" 2 FFD##K9 Yes 1.0 "" 1.0 ""
107 97 98 61.37 60 120 0 Open
;SIZINGDATA "" "" 2 FFD##K9 Yes 1.0 "" 1.0 ""
108 98 99 57.99 60 120 0 Open
;SIZINGDATA "" "" 2 FFD##K9 Yes 1.0 "" 1.0 ""
109 99 107 81.67 60 120 0 Open
;SIZINGDATA "" "" 2 FFD##K9 Yes 1.0 "" 1.0 ""
110 101 102 35.22 60 120 0 Open
;SIZINGDATA "" "" 2 FFD##K9 Yes 1.0 "" 1.0 ""
111 103 104 64.32 60 120 0 Open
;SIZINGDATA "" "" 2 FFD##K9 Yes 1.0 "" 1.0 ""
112 104 106 26.56 60 120 0 Open
;SIZINGDATA "" "" 2 FFD##K9 Yes 1.0 "" 1.0 ""
113 105 108 30.82 60 120 0 Open