[TITLE]
/Users/conrad/Documents/EC/Course_deuxiemme_annee/Project_Inno/Projet_P5C006/Monterusciello_solution/Monterusciello_acqueduct

[JUNCTIONS]
;ID Elev Demand Pattern
0 58.46 0.11 1
1 72.36 0.11 1
2 44.72 0.11 1
3 90.04 0.11 1
4 83.82 0.11 1
5 33.6 0.11 1
6 109.46 0.11 1
7 124.3 0.11 1
9 60.34 0.11 1
10 61.39 0.11 1
11 58.77 0.11 1
12 59.63 0.11 1
13 62.75 0.11 1
14 56.3 0.11 1
15 60.05 0.11 1
16 64.36 0.11 1
17 55.44 0.11 1
18 55.68 0.11 1
19 53.91 0.11 1
20 54.76 0.11 1
21 55.06 0.11 1
22 55.04 0.11 1
23 60.62 0.11 1
24 61.44 0.11 1
25 54.17 0.11 1
26 61.71 0.11 1
27 59.39 0.11 1
28 65.27 0.11 1
29 62.26 0.11 1
30 60.54 0.11 1
31 66.19 0.11 1
32 64.79 0.11 1
33 66.56 0.11 1
34 59.69 0.11 1
35 62.11 0.11 1
36 61.13 0.11 1
37 61.53 0.11 1
38 53.58 0.11 1
39 55.37 0.11 1
40 56.27 0.11 1
41 55.65 0.11 1
42 55.17 0.11 1
43 55.71 0.11 1
44 56.11 0.11 1
45 56.58 0.11 1
46 57.85 0.11 1
47 56.98 0.11 1
48 56.42 0.11 1
49 58.46 0.11 1
50 59.67 0.11 1
51 55.61 0.11 1
52 59.31 0.11 1
53 60.52 0.11 1
54 63.03 0.11 1
55 58.92 0.11 1
56 60.49 0.11 1
57 60.15 0.11 1
58 66.22 0.11 1
59 66.26 0.11 1
60 66.7 0.11 1
61 67.83 0.11 1
62 67.49 0.11 1
63 64.81 0.11 1
64 63.19 0.11 1
65 64.61 0.11 1
66 67.77 0.11 1
67 65.95 0.11 1
68 68.15 0.11 1
69 64.76 0.11 1
70 66.42 0.11 1
71 59.31 0.11 1
72 62.08 0.11 1
73 61.5 0.11 1
74 63.18 0.11 1
75 63.09 0.11 1
76 62.6 0.11 1
77 60.77 0.11 1
78 62.56 0.11 1
79 64.92 0.11 1
80 65.93 0.11 1
81 65.99 0.11 1
82 74.02 0.11 1
83 71.72 0.11 1
84 73.3 0.11 1
85 68.5 0.11 1
86 70.05 0.11 1
87 66.58 0.11 1
88 71.04 0.11 1
89 70.24 0.11 1
90 70.78 0.11 1
91 71.91 0.11 1
92 67.59 0.11 1
93 71.44 0.11 1
94 68.57 0.11 1
95 74.84 0.11 1
96 74.28 0.11 1
97 70.62 0.11 1
98 73.65 0.11 1
99 69.64 0.11 1
100 71.11 0.11 1
101 70.1 0.11 1
102 74.01 0.11 1
103 69.89 0.11 1
104 74.89 0.11 1
105 70.9 0.11 1
106 75.53 0.11 1
107 71.86 0.11 1
108 76.44 0.11 1
109 69.79 0.11 1
110 64.8 0.11 1
111 63.84 0.11 1
112 64.41 0.11 1
113 69.93 0.11 1
114 66.81 0.11 1
115 67.2 0.11 1
116 64.95 0.11 1
117 69.74 0.11 1
118 67.02 0.11 1
119 67.34 0.11 1
120 65.61 0.11 1
121 72.36 0.11 1
122 68.35 0.11 1
123 68.07 0.11 1
124 68.04 0.11 1
125 67.04 0.11 1
126 68.55 0.11 1
127 72.68 0.11 1
128 71.84 0.11 1
129 66.4 0.11 1
130 69.44 0.11 1
131 72.91 0.11 1
132 73.48 0.11 1
133 74.61 0.11 1
134 70.47 0.11 1
135 71.15 0.11 1
136 71.64 0.11 1
137 71.77 0.11 1
138 75.14 0.11 1
139 75.19 0.11 1
140 77.3 0.11 1
141 71.25 0.11 1
142 67.56 0.11 1
143 76.46 0.11 1
144 68.64 0.11 1
145 77.02 0.11 1
146 76.32 0.11 1
147 72.54 0.11 1
148 73.73 0.11 1
149 77.0 0.11 1
150 76.64 0.11 1
151 73.69 0.11 1
152 68.91 0.11 1
153 69.31 0.11 1
154 85.11 0.11 1
155 81.43 0.11 1
156 90.55 0.11 1
157 85.19 0.11 1
158 81.61 0.11 1
159 83.36 0.11 1
160 79.56 0.11 1
161 86.89 0.11 1
162 79.61 0.11 1
163 80.28 0.11 1
164 81.53 0.11 1
165 81.82 0.11 1
166 77.93 0.11 1
167 80.5 0.11 1
168 76.17 0.11 1
169 81.41 0.11 1
170 87.64 0.11 1
171 83.82 0.11 1
172 75.39 0.11 1
173 76.73 0.11 1
174 75.87 0.11 1
175 88.89 0.11 1
176 85.27 0.11 1
177 87.44 0.11 1
178 90.66 0.11 1
179 83.53 0.11 1
180 86.89 0.11 1
181 88.56 0.11 1
182 88.79 0.11 1
183 87.36 0.11 1
184 97.53 0.11 1
185 86.2 0.11 1
186 88.89 0.11 1
187 87.74 0.11 1
188 89.14 0.11 1
189 89.56 0.11 1
190 87.83 0.11 1
191 90.85 0.11 1
192 89.52 0.11 1
193 90.52 0.11 1
194 79.73 0.11 1
195 81.33 0.11 1
196 90.09 0.11 1
197 80.43 0.11 1
198 92.85 0.11 1
199 89.08 0.11 1
200 91.15 0.11 1
201 87.7 0.11 1
202 96.69 0.11 1
203 78.24 0.11 1
204 87.52 0.11 1
205 95.17 0.11 1
206 77.62 0.11 1
207 87.98 0.11 1
208 94.38 0.11 1
209 77.3 0.11 1
210 88.96 0.11 1
211 94.12 0.11 1
212 77.66 0.11 1
213 93.73 0.11 1
214 78.42 0.11 1
215 93.73 0.11 1
216 79.14 0.11 1
217 80.43 0.11 1
218 79.62 0.11 1
219 78.85 0.11 1
220 110.47 0.11 1
221 109.74 0.11 1
222 108.75 0.11 1
223 113.34 0.11 1
224 108.02 0.11 1
225 105.83 0.11 1
226 105.19 0.11 1
227 104.53 0.11 1
228 100.58 0.11 1
229 106.0 0.11 1
230 110.17 0.11 1
231 109.46 0.11 1
232 112.29 0.11 1
233 108.88 0.11 1
234 117.97 0.11 1
235 109.3 0.11 1
236 108.38 0.11 1
237 114.23 0.11 1
238 107.0 0.11 1
239 107.3 0.11 1
240 106.96 0.11 1
241 106.55 0.11 1
242 110.57 0.11 1
243 102.76 0.11 1
244 109.7 0.11 1
245 111.56 0.11 1
246 109.99 0.11 1
247 109.82 0.11 1
248 108.58 0.11 1
249 105.92 0.11 1
250 111.11 0.11 1
251 111.94 0.11 1
252 110.31 0.11 1
253 111.89 0.11 1
254 112.27 0.11 1
255 111.2 0.11 1
256 112.13 0.11 1
257 111.64 0.11 1
258 112.26 0.11 1
259 114.28 0.11 1
260 101.17 0.11 1
261 101.26 0.11 1
262 107.04 0.11 1
263 110.83 0.11 1
264 112.15 0.11 1
265 107.06 0.11 1
266 110.57 0.11 1
267 113.32 0.11 1
268 114.22 0.11 1
269 114.23 0.11 1
270 111.95 0.11 1
271 114.48 0.11 1
272 112.9 0.11 1
273 115.89 0.11 1
274 116.41 0.11 1
275 118.07 0.11 1
276 115.89 0.11 1
277 118.21 0.11 1
278 114.78 0.11 1
279 121.43 0.11 1
280 38.62 0.11 1
281 38.42 0.11 1
282 34.14 0.11 1
283 42.81 0.11 1
284 37.93 0.11 1
285 38.93 0.11 1
286 32.03 0.11 1
287 45.01 0.11 1
288 43.57 0.11 1
289 39.62 0.11 1
290 44.5 0.11 1
291 41.44 0.11 1
292 39.94 0.11 1
293 39.1 0.11 1
294 35.54 0.11 1
295 33.19 0.11 1
296 35.92 0.11 1
297 32.76 0.11 1
298 39.99 0.11 1
299 36.73 0.11 1
300 37.12 0.11 1
301 33.0 0.11 1
302 37.03 0.11 1
303 32.65 0.11 1
304 31.55 0.11 1
305 33.11 0.11 1
306 27.3 0.11 1
307 28.58 0.11 1
308 37.05 0.11 1
309 33.06 0.11 1
310 29.16 0.11 1
311 37.39 0.11 1
312 33.49 0.11 1
313 40.61 0.11 1
314 40.63 0.11 1
315 33.6 0.11 1
316 42.55 0.11 1
317 41.03 0.11 1
318 40.15 0.11 1
319 37.75 0.11 1
320 37.0 0.11 1
321 35.33 0.11 1
322 34.6 0.11 1
323 30.79 0.11 1
324 30.13 0.11 1
325 28.89 0.11 1
326 27.67 0.11 1
327 26.46 0.11 1
328 42.13 0.11 1
329 40.71 0.11 1
330 26.02 0.11 1
331 25.65 0.11 1
332 52.5 0.11 1
333 53.16 0.11 1
334 51.73 0.11 1
335 51.74 0.11 1
336 45.57 0.11 1
337 48.64 0.11 1
338 51.88 0.11 1
339 48.56 0.11 1
340 49.1 0.11 1
341 58.65 0.11 1
342 46.46 0.11 1
343 56.02 0.11 1
344 45.44 0.11 1
345 47.2 0.11 1
346 49.79 0.11 1
347 49.08 0.11 1
348 48.85 0.11 1
349 52.34 0.11 1
350 60.41 0.11 1
351 57.17 0.11 1
352 57.92 0.11 1
353 54.92 0.11 1
354 57.91 0.11 1
355 55.76 0.11 1
356 54.5 0.11 1
357 56.66 0.11 1
358 44.72 0.11 1
359 44.62 0.11 1
360 55.46 0.11 1
361 51.73 0.11 1
362 56.49 0.11 1
363 53.73 0.11 1
364 55.35 0.11 1
365 51.3 0.11 1
366 50.66 0.11 1
367 49.68 0.11 1
368 47.88 0.11 1
369 47.63 0.11 1
370 46.86 0.11 1
371 47.34 0.11 1
372 48.26 0.11 1
373 48.78 0.11 1
374 53.57 0.11 1
375 80.68 0.11 1
376 83.84 0.11 1
377 84.07 0.11 1
378 86.08 0.11 1
379 96.31 0.11 1
380 98.27 0.11 1
381 99.45 0.11 1
382 91.76 0.11 1
383 82.85 0.11 1
384 82.44 0.11 1
385 87.09 0.11 1
386 83.52 0.11 1
387 83.0 0.11 1
388 90.19 0.11 1
389 84.62 0.11 1
390 85.21 0.11 1
391 81.35 0.11 1
392 87.44 0.11 1
393 93.27 0.11 1
394 94.46 0.11 1
395 91.06 0.11 1
396 97.4 0.11 1
397 95.94 0.11 1
398 99.99 0.11 1
399 88.44 0.11 1
400 92.01 0.11 1
401 86.24 0.11 1
402 93.73 0.11 1
403 92.89 0.11 1
404 85.57 0.11 1
405 86.77 0.11 1
406 90.04 0.11 1
407 97.4 0.11 1
408 95.61 0.11 1
409 97.86 0.11 1
410 97.05 0.11 1
411 100.69 0.11 1
412 99.61 0.11 1
413 97.55 0.11 1
414 98.67 0.11 1
415 98.64 0.11 1
416 98.79 0.11 1
417 98.45 0.11 1
418 96.34 0.11 1
419 94.56 0.11 1
420 98.85 0.11 1
421 98.5 0.11 1
422 126.06 0.11 1
423 125.84 0.11 1
424 123.17 0.11 1
425 124.3 0.11 1
426 123.63 0.11 1
427 123.3 0.11 1
428 121.53 0.11 1
429 119.77 0.11 1
430 117.96 0.11 1

[RESERVOIRS]
;ID Head

[TANKS]
;ID Elev InitLvl MinLvl MaxLvl Diam Volume
8 109.46 3 2 33 50 

[COORDINATES]
;Node       X-Coord.    Y-Coord
0 14.09592599181706 40.8767786604582
1 14.09322310706526 40.873684266219854
2 14.08688230071632 40.87457003273693
3 14.097422783674842 40.872400420105826
4 14.087414986676421 40.87015758533592
5 14.08393428382979 40.87554265067207
6 14.096039007360686 40.8678969267376
7 14.084341013333335 40.86698446666667
8 14.095492415 40.8594046
9 14.093016420000001 40.87529852
10 14.091602533333335 40.87419102222222
11 14.092950060000001 40.87581576
12 14.093966939999998 40.87564742
13 14.089957340000002 40.874020140000006
14 14.09331808888889 40.87652808888888
15 14.09433726 40.87565074
16 14.09411778 40.87502836
17 14.094465988888889 40.87852827777778
18 14.094431528571429 40.87842427142857
19 14.0946326 40.878629100000005
20 14.094325519999998 40.8778917
21 14.0943327 40.877634539999995
22 14.09461586 40.87788912
23 14.08857568 40.87326272
24 14.08831726 40.87306074
25 14.09355088 40.877082220000005
26 14.09681932 40.87672078
27 14.09608206 40.876494060000006
28 14.097751207692305 40.87653970769232
29 14.097087179999999 40.87772188
30 14.09606712 40.87566516
31 14.09794774 40.875682440000006
32 14.09793262 40.87702034
33 14.098426039999998 40.876477300000005
34 14.096661200000003 40.87774776
35 14.09710222 40.87796414
36 14.08782146 40.87307838
37 14.08807908 40.87307817999999
38 14.093886419999999 40.87762166
39 14.094639879999999 40.87761549999999
40 14.094329120000001 40.87686884
41 14.09510588 40.87763532
42 14.095094419999999 40.87790642
43 14.095390259999999 40.877899819999996
44 14.095379459999998 40.87763776
45 14.0958289 40.87764974
46 14.095526377777777 40.877030633333334
47 14.095800079999998 40.87792226
48 14.095517179999998 40.87826345999999
49 14.096052219999999 40.87702958
50 14.096624600000002 40.87795538
51 14.09552914 40.87837116
52 14.0966958 40.87835692
53 14.09533228 40.87565752
54 14.09654596 40.87566774
55 14.095601677777777 40.876550811111116
56 14.095085980000002 40.87565044
57 14.09460092 40.87565112
58 14.09509964 40.875032499999996
59 14.09748928 40.87567732
60 14.098229 40.875675179999995
61 14.098673920000001 40.87570514
62 14.09899886 40.87693946
63 14.09818494 40.87768728
64 14.09787424 40.877909120000005
65 14.098286980000001 40.87794672
66 14.099212320000001 40.877285259999994
67 14.098691800000001 40.87765257777777
68 14.09945904 40.877905
69 14.09856874 40.87777838
70 14.099089519999998 40.87813698
71 14.096661219999998 40.878494
72 14.097128299999998 40.87822356
73 14.09720972 40.87849408
74 14.097681115789475 40.87802686842105
75 14.097776640000001 40.87828456
76 14.09751664 40.87846906
77 14.097526460000001 40.87864032
78 14.097820480000001 40.87848288
79 14.0987903 40.878154
80 14.09903266 40.87840838
81 14.099178899999998 40.87855518
82 14.0984256 40.87483955
83 14.09753288 40.87493096
84 14.099342279999998 40.875014879999995
85 14.09639332 40.875045140000005
86 14.09943076 40.875692799999996
87 14.086154627272727 40.87215936363637
88 14.08632802 40.87166989999999
89 14.08599812 40.87166179999999
90 14.08662842 40.87166989999999
91 14.0963974 40.87462246
92 14.095952700000002 40.87504130000001
93 14.099913520000001 40.8758101
94 14.098953980000001 40.87568438
95 14.088333119999998 40.87112336
96 14.088653920000002 40.87112662
97 14.08801646 40.871676
98 14.08896776 40.871132300000006
99 14.0886415 40.87192764
100 14.087683860000002 40.871676
101 14.088331540000002 40.871920540000005
102 14.08929166 40.871134
103 14.088963340000001 40.87191954
104 14.089606239999998 40.87113572
105 14.089285219999999 40.87191954
106 14.089923959999998 40.87113904
107 14.089758899999998 40.871636620000004
108 14.090369557142859 40.8707511
109 14.089893025000002 40.872140400000006
110 14.088109238095237 40.872500752380965
111 14.08937128 40.873612800000004
112 14.089787359999999 40.87360446
113 14.090565983333333 40.87184666666666
114 14.09023316 40.8732021
115 14.09078452 40.87320523999999
116 14.09021648 40.87360124
117 14.093281533333338 40.8741658095238
118 14.093267220000001 40.87458628
119 14.09370706 40.87459776
120 14.090786599999998 40.87356896
121 14.093297380000001 40.873601719999996
122 14.084545885714288 40.871441342857146
123 14.08449998 40.87155455999999
124 14.08505806 40.8716628
125 14.08410982 40.8716496
126 14.08536776 40.87166179999999
127 14.08506736 40.871136480000004
128 14.0841152 40.87112229999999
129 14.0837987 40.8716476
130 14.08569502 40.87166584
131 14.08537582 40.87114054
132 14.0856977 40.871136480000004
133 14.0860142 40.8711446
134 14.087072319999999 40.87167194
135 14.08736202 40.871667880000004
136 14.08380674 40.871120239999996
137 14.095955100000001 40.87461628
138 14.09638514 40.87424608
139 14.0959824 40.87421332
140 14.09633354 40.87394252
141 14.09510242 40.874615240000004
142 14.09463183846154 40.874816038461546
143 14.09512282 40.873958040000005
144 14.094136600000002 40.87459846
145 14.09558884 40.87393858
146 14.094583080000001 40.87345274
147 14.094151744444446 40.87418184444444
148 14.09371342 40.87356686
149 14.09589522 40.87397797999999
150 14.093991160000002 40.873137740000004
151 14.09356578 40.873175720000006
152 14.099095519999997 40.87643206
153 14.09934632 40.876705539999996
154 14.09078520416667 40.86995831666667
155 14.094003076923077 40.87230911538461
156 14.08993685 40.86955981250001
157 14.089532420000001 40.87002114
158 14.088537919999998 40.87022226
159 14.088428779999997 40.87001268
160 14.08864768 40.87051444
161 14.088536799999998 40.86978137142857
162 14.088330899999999 40.87051176
163 14.08897328 40.870515780000005
164 14.087229133333336 40.8705421
165 14.0865456 40.870547280000004
166 14.087093480000002 40.87098444
167 14.08632974 40.8705992
168 14.08709014 40.871208919999994
169 14.08768904 40.87050882
170 14.08717738 40.869931539999996
171 14.08761728 40.8700065
172 14.086423060000001 40.871126700000005
173 14.08769562 40.87111826
174 14.08800844 40.87112146
175 14.087033309090911 40.86954023636364
176 14.08626788 40.870032779999995
177 14.087193999999998 40.86970876666666
178 14.08565596 40.86961846
179 14.086323680000001 40.87026202
180 14.087183828571428 40.8697678
181 14.087400109090908 40.86954295454545
182 14.087661300000002 40.869545154545456
183 14.087811499999999 40.86971054285714
184 14.087389000000002 40.86894924
185 14.087813614285713 40.8697773
186 14.08803829090909 40.86954794545455
187 14.088465900000001 40.86972502222223
188 14.08830030909091 40.86955013636364
189 14.088671745454548 40.869522736363635
190 14.089205044444446 40.86978138888889
191 14.089306990909092 40.869557863636366
192 14.089086457142857 40.86970448571429
193 14.088933099999998 40.86955505454545
194 14.089606799999999 40.87052112
195 14.08600482 40.87053204
196 14.085381180000002 40.8695923
197 14.08801594 40.870507759999995
198 14.08352118 40.86958338
199 14.0838222 40.86957796
200 14.083161185714285 40.87014908571429
201 14.084131039999999 40.86958204
202 14.083821940000002 40.869031160000006
203 14.083800020000002 40.8705199
204 14.084443679999998 40.8695805
205 14.084132979999998 40.86903434
206 14.084127259999999 40.8705199
207 14.08475938 40.8695872
208 14.084451000000001 40.86909867999999
209 14.084449119999999 40.87052394
210 14.085072779999999 40.869587579999994
211 14.084766519999999 40.86909834
212 14.084749539999999 40.870528
213 14.08507576 40.86916718
214 14.085076760000002 40.87053204
215 14.085389020000003 40.86916796
216 14.085387919999999 40.870540180000006
217 14.085704419999999 40.87053204
218 14.08929004 40.87051846
219 14.089920000000001 40.870522460000004
220 14.08710834 40.86731947999999
221 14.08743496 40.867319880000004
222 14.087763200000001 40.867329999999995
223 14.0873323 40.86677016
224 14.088104239999998 40.8673281
225 14.088776139999998 40.86733164
226 14.08907686 40.86734027999999
227 14.089326840000002 40.867339959999995
228 14.09217982857143 40.86796135714286
229 14.09342566 40.868151700000006
230 14.096318019999998 40.868386799999996
231 14.095968719999998 40.86838324
232 14.0973682 40.86889198
233 14.09559658 40.8683969
234 14.097566079999998 40.86840828
235 14.097406979999999 40.86925166
236 14.095244099999999 40.86838538
237 14.09489548 40.86609408
238 14.094872599999999 40.868396180000005
239 14.094507479999999 40.86838522
240 14.094029639999999 40.868238659999996
241 14.09373282 40.86830218
242 14.094012179999998 40.86643146
243 14.093439720000001 40.86861256
244 14.09370522 40.86644634
245 14.094343660000002 40.86635184000001
246 14.093727159999997 40.86616838
247 14.093466800000002 40.865685840000005
248 14.0935545 40.865494940000005
249 14.093576333333333 40.866140316666666
250 14.09373802 40.86558934
251 14.093797411111108 40.86540986666667
252 14.093891079999997 40.86574528
253 14.093911420000001 40.86550502
254 14.094134611111109 40.86566213333334
255 14.094054299999998 40.86599925714286
256 14.094150379999999 40.865450380000006
257 14.094442144444447 40.865831299999996
258 14.09460202857143 40.86623378571429
259 14.09488714 40.865626199999994
260 14.09746912 40.87086318
261 14.097760060000002 40.87097474
262 14.098348759999999 40.87051418
263 14.097797599999998 40.869773339999995
264 14.098670783333333 40.8701534
265 14.09943334 40.87088552
266 14.09915562 40.8704601
267 14.0988946 40.87003856
268 14.0987449 40.8699271
269 14.098976099999998 40.86982652
270 14.097747919999998 40.86928836
271 14.0979027 40.86904684
272 14.098271975000001 40.8693974
273 14.098301800000002 40.86909566
274 14.098484533333334 40.8690098
275 14.098186500000002 40.86865652
276 14.099086 40.86946818
277 14.097876580000001 40.86851638
278 14.099026885714284 40.86965375714286
279 14.097972519999999 40.868057820000004
280 14.087080699999998 40.87657258
281 14.0861768 40.87571934
282 14.08638828 40.87810707999999
283 14.08602842222222 40.874941111111106
284 14.0858053 40.87572596
285 14.08751474 40.878231140000004
286 14.084992779999999 40.87751114
287 14.081339980000001 40.87349522
288 14.08137606 40.87389262000001
289 14.081322599999998 40.87438856
290 14.08220526 40.873897459999995
291 14.082207019999998 40.874387940000005
292 14.08179362 40.87437912
293 14.08220068 40.87470766
294 14.08131976 40.87506432
295 14.08085684 40.87506448
296 14.08178464 40.875072519999996
297 14.08119014 40.87568606
298 14.082802599999999 40.874752439999995
299 14.08220278 40.87507362
300 14.082806299999998 40.87507188
301 14.08223864 40.875676920000004
302 14.083217020000001 40.87511669999999
303 14.08283646 40.87574758
304 14.07985376 40.87540922
305 14.081705739999999 40.875676580000004
306 14.081281719999998 40.877409820000004
307 14.082018260000002 40.87742978
308 14.0836555 40.87506914
309 14.083199220000001 40.8757474
310 14.08274692 40.87743504
311 14.08407124 40.875083720000006
312 14.083582479999999 40.8757436
313 14.08407924 40.87476072
314 14.084654480000001 40.87475932
315 14.0839506 40.875736419999996
316 14.08529034 40.87466746
317 14.085357577777778 40.87494303333333
318 14.085572619999999 40.87516386
319 14.085433080000001 40.87573148
320 14.085064359999999 40.87572778
321 14.08469316 40.8757342
322 14.08432086 40.875735500000005
323 14.08425102 40.87743561999999
324 14.083518900000001 40.877434660000006
325 14.082726560000001 40.878206920000004
326 14.08196672 40.87823406
327 14.081264780000001 40.878242619999995
328 14.08901678 40.8782969
329 14.088270400000003 40.878295679999994
330 14.08045066 40.87815009999999
331 14.08014838 40.87833014
332 14.09324718 40.877713240000006
333 14.093877020000003 40.87792903999999
334 14.092349357142856 40.87712292857143
335 14.092155680000001 40.87709466
336 14.08352764 40.8739391
337 14.08368028 40.873479960000004
338 14.083687500000002 40.873111640000005
339 14.08324986 40.873469820000004
340 14.088858820000002 40.87574964
341 14.088580566666668 40.87356438888889
342 14.088897620000001 40.87643758
343 14.088318999999998 40.87361316
344 14.0885526 40.87643284
345 14.0892948 40.8764359
346 14.091453142857143 40.876773914285714
347 14.090769940000001 40.87644902000001
348 14.090391359999998 40.8764503
349 14.092238660000001 40.87693316
350 14.087544399999999 40.87307314
351 14.087589844444445 40.87329187777778
352 14.087804020000002 40.87332202
353 14.087592840000003 40.87354922
354 14.0878039 40.87322424
355 14.087800719999999 40.873542979999996
356 14.08780404 40.873645980000006
357 14.08808154 40.87354852
358 14.0859926 40.87470085714286
359 14.08816232 40.87642888
360 14.0880831 40.87365462
361 14.084653620000001 40.87327606
362 14.085705542857143 40.87312177142858
363 14.08411136 40.87311482
364 14.085923184615384 40.873380315384615
365 14.083259000000002 40.87311164
366 14.08282776 40.873150499999994
367 14.08222616 40.87314404000001
368 14.082829379999998 40.87346854
369 14.0817954 40.87310148
370 14.08222672 40.87346170000001
371 14.08133676 40.87309994
372 14.08965074 40.87642624
373 14.090039 40.8764395
374 14.092285971428572 40.87667322857143
375 14.099349559999999 40.87445934
376 14.098888850000002 40.87381563333333
377 14.09878762 40.87362006
378 14.099011916666667 40.8736883
379 14.088744466666668 40.8691231
380 14.088811579999998 40.86870689999999
381 14.091947540000001 40.86795432
382 14.095480279999999 40.87155252
383 14.0963292 40.87322674
384 14.095904480000002 40.8732319
385 14.0961411 40.87262938
386 14.097118533333331 40.87291481111112
387 14.09564996 40.87316504
388 14.096153320000003 40.87223998
389 14.0954692 40.872587880000005
390 14.0971477 40.87274416666667
391 14.09524566 40.87320498
392 14.09547978 40.87224438
393 14.096296599999999 40.87191714
394 14.096290239999998 40.87156298
395 14.095476679999999 40.87189164
396 14.0972217 40.87133622
397 14.097457079999998 40.87160792
398 14.09732238 40.871104939999995
399 14.09852884 40.87273294
400 14.09879764 40.872664220000004
401 14.09908112 40.87348994
402 14.099181519999998 40.87250368
403 14.098612385714286 40.87235078571428
404 14.097261120000002 40.872653979999995
405 14.09723702 40.87254726
406 14.09739146 40.872309820000005
407 14.097603855555555 40.87126776666666
408 14.097813740000001 40.87174476
409 14.097924419999998 40.8713159
410 14.098013500000002 40.871509919999994
411 14.098031119999998 40.87103436
412 14.09828028 40.87107072
413 14.098167759999999 40.87136484
414 14.09865656 40.87146994
415 14.09939516 40.87178078
416 14.09961616 40.87177412
417 14.099345379999999 40.87198406
418 14.099330120000001 40.8722822
419 14.099703120000001 40.872499160000004
420 14.099662180000001 40.87197174
421 14.100116659999998 40.8718608
422 14.08368266 40.86672626
423 14.08401284 40.8667248
424 14.083674259999999 40.86729444
425 14.08434392 40.86673172
426 14.08334272 40.867291279999996
427 14.084664179999999 40.866736059999994
428 14.084996760000001 40.866739759999994
429 14.085008640000002 40.86730804
430 14.08534314 40.86730784

[PIPES]
;ID Node1 Node2 Length Diam Roughness
0 0 1 457.01 110.0 130 1
1 0 27 36.1 75.0 120 2
2 0 46 52.55 75.0 120 2
3 0 49 31.24 75.0 120 2
4 0 55 44.09 75.0 120 2
5 1 2 712.14 160.0 130 1
6 1 3 488.47 225.0 130 1
7 1 117 53.96 75.0 120 2
8 1 120 271.32 75.0 120 2
9 1 121 12.35 75.0 120 2
10 2 4 494.36 110.0 130 1
11 2 5 345.3 90.0 130 1
12 2 353 138.34 75.0 120 2
13 2 358 100.03 75.0 120 2
14 2 359 251.04 75.0 120 2
15 3 6 524.04 250.0 130 1
16 3 399 128.47 75.0 120 2
17 3 405 26.34 75.0 120 2
18 3 406 10.66 75.0 120 2
19 4 7 491.41 75.0 130 1
20 4 164 47.5 75.0 120 2
21 4 169 49.55 75.0 120 2
22 4 170 36.48 75.0 120 2
23 4 171 28.08 75.0 120 2
24 5 311 53.27 75.0 120 2
25 5 315 21.63 75.0 120 2
26 6 8 946.56 250.0 130 1
27 6 231 54.65 75.0 120 2
28 6 237 237.47 75.0 120 2
29 7 425 28.12 75.0 120 2
30 9 10 199.77 75.0 120 2
31 9 11 58.0 75.0 120 2
32 9 12 112.62 75.0 120 2
33 10 13 183.98 75.0 120 2
34 11 14 89.18 75.0 120 2
35 12 15 41.19 75.0 120 2
36 12 16 70.87 75.0 120 2
37 13 23 175.26 75.0 120 2
38 14 25 66.85 75.0 120 2
39 15 40 135.49 75.0 120 2
40 15 57 29.33 75.0 120 2
41 17 18 12.19 75.0 120 2
42 17 19 21.66 75.0 120 2
43 18 20 60.4 75.0 120 2
44 20 21 28.62 75.0 120 2
45 20 22 32.3 75.0 120 2
46 21 38 49.66 75.0 120 2
47 21 39 34.23 75.0 120 2
48 21 40 85.17 75.0 120 2
49 22 39 30.55 75.0 120 2
50 22 42 53.27 75.0 120 2
51 23 24 36.48 75.0 120 2
52 24 37 26.56 75.0 120 2
53 25 38 70.66 75.0 120 2
54 25 40 89.76 75.0 120 2
55 26 27 85.8 75.0 120 2
56 26 28 105.59 75.0 120 2
57 26 29 115.27 75.0 120 2
58 27 30 92.21 75.0 120 2
59 28 31 97.83 75.0 120 2
60 28 32 57.14 75.0 120 2
61 28 33 75.38 75.0 120 2
62 29 34 47.47 75.0 120 2
63 29 35 27.0 75.0 120 2
64 30 53 81.74 75.0 120 2
65 30 54 53.26 75.0 120 2
66 31 59 51.0 75.0 120 2
67 31 60 31.3 75.0 120 2
68 32 63 79.32 75.0 120 2
69 33 61 90.2 75.0 120 2
70 33 62 81.87 75.0 120 2
71 34 45 93.22 75.0 120 2
72 34 50 23.45 75.0 120 2
73 35 50 53.13 75.0 120 2
74 35 72 29.0 75.0 120 2
75 35 74 64.77 75.0 120 2
76 36 37 28.66 75.0 120 2
77 39 41 51.88 75.0 120 2
78 41 42 30.18 75.0 120 2
79 41 44 30.43 75.0 120 2
80 42 43 32.91 75.0 120 2
81 43 44 29.17 75.0 120 2
82 43 47 45.65 75.0 120 2
83 43 48 42.84 75.0 120 2
84 44 45 50.01 75.0 120 2
85 44 46 69.48 75.0 120 2
86 45 47 30.48 75.0 120 2
87 45 49 73.32 75.0 120 2
88 47 50 91.79 75.0 120 2
89 48 51 12.05 75.0 120 2
90 50 52 45.36 75.0 120 2
91 52 71 15.73 75.0 120 2
92 52 72 50.34 75.0 120 2
93 53 55 103.78 75.0 120 2
94 53 56 27.41 75.0 120 2
95 54 59 104.93 75.0 120 2
96 56 57 53.95 75.0 120 2
97 56 58 68.75 75.0 120 2
98 60 61 49.6 75.0 120 2
99 62 66 45.2 75.0 120 2
100 63 64 42.46 75.0 120 2
101 63 65 31.01 75.0 120 2
102 64 74 25.16 75.0 120 2
103 65 69 36.51 75.0 120 2
104 66 67 70.86 75.0 120 2
105 66 68 74.2 75.0 120 2
106 67 69 19.57 75.0 120 2
107 68 70 48.53 75.0 120 2
108 69 79 48.51 75.0 120 2
109 70 79 33.34 75.0 120 2
110 70 80 30.84 75.0 120 2
111 72 73 31.42 75.0 120 2
112 73 76 34.25 75.0 120 2
113 74 75 30.57 75.0 120 2
114 75 78 22.59 75.0 120 2
115 76 77 19.08 75.0 120 2
116 76 78 33.83 75.0 120 2
117 80 81 23.05 75.0 120 2
118 82 83 99.82 75.0 120 2
119 82 84 103.81 75.0 120 2
120 83 85 127.39 75.0 120 2
121 84 86 76.04 75.0 120 2
122 85 91 47.02 75.0 120 2
123 85 92 49.01 75.0 120 2
124 86 93 55.26 75.0 120 2
125 86 94 53.04 75.0 120 2
126 87 88 57.76 75.0 120 2
127 88 89 36.71 75.0 120 2
128 88 90 33.41 75.0 120 2
129 89 130 33.72 75.0 120 2
130 89 133 57.56 75.0 120 2
131 90 134 49.38 75.0 120 2
132 91 137 49.2 75.0 120 2
133 91 138 41.89 75.0 120 2
134 92 137 47.28 75.0 120 2
135 94 152 84.64 75.0 120 2
136 95 96 35.68 75.0 120 2
137 95 97 70.85 75.0 120 2
138 96 98 34.91 75.0 120 2
139 96 99 89.11 75.0 120 2
140 97 100 37.0 75.0 120 2
141 97 101 44.36 75.0 120 2
142 98 102 36.03 75.0 120 2
143 98 103 87.57 75.0 120 2
144 99 101 34.49 75.0 120 2
145 99 103 35.81 75.0 120 2
146 100 135 35.81 75.0 120 2
147 101 110 69.11 75.0 120 2
148 102 104 34.99 75.0 120 2
149 103 105 35.8 75.0 120 2
150 104 106 35.34 75.0 120 2
151 104 107 58.25 75.0 120 2
152 105 107 61.37 75.0 120 2
153 106 108 65.72 75.0 120 2
154 107 109 57.99 75.0 120 2
155 109 113 81.67 75.0 120 2
156 109 114 124.01 75.0 120 2
157 110 111 187.1 75.0 120 2
158 111 112 46.29 75.0 120 2
159 112 116 47.73 75.0 120 2
160 113 115 153.06 75.0 120 2
161 114 116 44.44 75.0 120 2
162 114 115 61.33 75.0 120 2
163 115 120 40.46 75.0 120 2
164 116 120 63.52 75.0 120 2
165 117 118 46.8 75.0 120 2
166 118 119 48.94 75.0 120 2
167 119 144 47.78 75.0 120 2
168 121 148 46.44 75.0 120 2
169 122 123 13.59 75.0 120 2
170 122 124 62.07 75.0 120 2
171 123 125 44.67 75.0 120 2
172 124 126 34.45 75.0 120 2
173 124 127 58.55 75.0 120 2
174 125 128 58.65 75.0 120 2
175 125 129 34.61 75.0 120 2
176 126 130 36.4 75.0 120 2
177 126 131 57.99 75.0 120 2
178 127 131 34.31 75.0 120 2
179 128 136 34.31 75.0 120 2
180 129 136 58.67 75.0 120 2
181 130 132 58.88 75.0 120 2
182 131 132 35.81 75.0 120 2
183 132 133 35.22 75.0 120 2
184 134 135 32.23 75.0 120 2
185 137 139 44.92 75.0 120 2
186 138 140 34.25 75.0 120 2
187 138 139 44.94 75.0 120 2
188 139 149 27.92 75.0 120 2
189 140 149 48.91 75.0 120 2
190 141 142 56.91 75.0 120 2
191 141 143 73.14 75.0 120 2
192 142 144 60.17 75.0 120 2
193 143 145 51.88 75.0 120 2
194 143 146 82.24 75.0 120 2
195 144 147 46.37 75.0 120 2
196 145 149 34.36 75.0 120 2
197 146 147 94.23 75.0 120 2
198 146 150 74.58 75.0 120 2
199 147 148 84.0 75.0 120 2
200 148 151 46.5 75.0 120 2
201 150 151 47.5 75.0 120 2
202 152 153 41.27 75.0 120 2
203 154 155 443.26 75.0 120 2
204 154 156 104.26 75.0 120 2
205 156 157 68.24 75.0 120 2
206 157 190 45.13 75.0 120 2
207 157 194 56.23 75.0 120 2
208 158 159 26.28 75.0 120 2
209 158 160 34.72 75.0 120 2
210 159 161 28.4 75.0 120 2
211 160 162 35.24 75.0 120 2
212 160 163 36.22 75.0 120 2
213 161 187 10.07 75.0 120 2
214 162 197 35.04 75.0 120 2
215 163 218 35.23 75.0 120 2
216 164 165 76.03 75.0 120 2
217 164 166 51.46 75.0 120 2
218 165 167 24.7 75.0 120 2
219 166 168 24.97 75.0 120 2
220 167 172 59.59 75.0 120 2
221 167 179 37.51 75.0 120 2
222 167 195 36.91 75.0 120 2
223 168 172 74.76 75.0 120 2
224 168 173 68.1 75.0 120 2
225 169 173 67.79 75.0 120 2
226 169 197 36.36 75.0 120 2
227 170 180 18.23 75.0 120 2
228 171 185 33.57 75.0 120 2
229 173 174 34.8 75.0 120 2
230 174 197 68.27 75.0 120 2
231 175 176 101.24 75.0 120 2
232 175 177 25.9 75.0 120 2
233 176 178 82.2 75.0 120 2
234 176 179 26.24 75.0 120 2
235 177 180 6.66 75.0 120 2
236 177 181 29.42 75.0 120 2
237 178 196 30.7 75.0 120 2
238 181 182 29.05 75.0 120 2
239 181 184 66.05 75.0 120 2
240 182 183 24.85 75.0 120 2
241 183 185 7.43 75.0 120 2
242 183 186 31.04 75.0 120 2
243 186 188 29.15 75.0 120 2
244 187 188 26.79 75.0 120 2
245 187 189 32.1 75.0 120 2
246 189 193 29.29 75.0 120 2
247 190 191 27.33 75.0 120 2
248 190 192 15.72 75.0 120 2
249 192 193 23.82 75.0 120 2
250 194 218 35.23 75.0 120 2
251 194 219 34.84 75.0 120 2
252 195 217 33.41 75.0 120 2
253 196 210 34.31 75.0 120 2
254 196 215 47.21 75.0 120 2
255 196 216 105.44 75.0 120 2
256 198 199 33.49 75.0 120 2
257 198 200 74.58 75.0 120 2
258 199 201 34.36 75.0 120 2
259 199 202 60.82 75.0 120 2
260 200 203 82.16 75.0 120 2
261 201 204 34.78 75.0 120 2
262 201 205 60.92 75.0 120 2
263 201 206 104.32 75.0 120 2
264 202 205 34.6 75.0 120 2
265 203 206 36.4 75.0 120 2
266 204 207 35.12 75.0 120 2
267 204 208 53.6 75.0 120 2
268 204 209 104.94 75.0 120 2
269 205 208 36.09 75.0 120 2
270 206 209 35.8 75.0 120 2
271 207 210 34.86 75.0 120 2
272 207 211 54.38 75.0 120 2
273 207 212 104.65 75.0 120 2
274 208 211 35.1 75.0 120 2
275 209 212 33.42 75.0 120 2
276 210 213 46.76 75.0 120 2
277 210 214 105.05 75.0 120 2
278 211 213 35.24 75.0 120 2