[TITLE]
/Users/conrad/Documents/EC/Course_deuxiemme_annee/Project_Inno/Projet_P5C006/Monterusciello_solution/Monterusciello_acqueduct

[JUNCTIONS]
;ID              	Elev        	Demand      	Pattern         
;NFLOURS    Value
;PRESS_DRIVEN    Ref.press   Tresh.press
 0               	76          	0.11        	                	;
; NFLOURS     	1           
; PRESS_DRIVEN	14.276	-1.0        
 1               	51          	0.11        	                	;
; NFLOURS     	1           
; PRESS_DRIVEN	14.276	-1.0        
 2               	105.5       	0.11        	                	;
; NFLOURS     	1           
; PRESS_DRIVEN	14.276	-1.0        
 3               	50          	0.11        	                	;
; NFLOURS     	1           
; PRESS_DRIVEN	14.276	-1.0        
 4               	92.5        	0.11        	                	;
; NFLOURS     	1           
; PRESS_DRIVEN	14.276	-1.0        
 6               	77          	0.11        	                	;
; NFLOURS     	1           
; PRESS_DRIVEN	14.276	-1.0        
 7               	58.5        	0.11        	                	;
; NFLOURS     	1           
; PRESS_DRIVEN	14.276	-1.0        
 8               	85.11       	0.11        	                	;
; NFLOURS     	1           
; PRESS_DRIVEN	14.276	-1.0        
 9               	90.55       	0.11        	                	;
; NFLOURS     	1           
; PRESS_DRIVEN	14.276	-1.0        
 10              	76.44       	0.11        	                	;
; NFLOURS     	1           
; PRESS_DRIVEN	14.276	-1.0        
 11              	85.19       	0.11        	                	;
; NFLOURS     	1           
; PRESS_DRIVEN	14.276	-1.0        
 12              	75.53       	0.11        	                	;
; NFLOURS     	1           
; PRESS_DRIVEN	14.276	-1.0        
 13              	78.85       	0.11        	                	;
; NFLOURS     	1           
; PRESS_DRIVEN	14.276	-1.0        
 14              	96.31       	0.11        	                	;
; NFLOURS     	1           
; PRESS_DRIVEN	14.276	-1.0        
 15              	89.56       	0.11        	                	;
; NFLOURS     	1           
; PRESS_DRIVEN	14.276	-1.0        
 16              	98.27       	0.11        	                	;
; NFLOURS     	1           
; PRESS_DRIVEN	14.276	-1.0        
 17              	90.52       	0.11        	                	;
; NFLOURS     	1           
; PRESS_DRIVEN	14.276	-1.0        
 18              	87.74       	0.11        	                	;
; NFLOURS     	1           
; PRESS_DRIVEN	14.276	-1.0        
 19              	105.83      	0.11        	                	;
; NFLOURS     	1           
; PRESS_DRIVEN	14.276	-1.0        
 20              	81.61       	0.11        	                	;
; NFLOURS     	1           
; PRESS_DRIVEN	14.276	-1.0        
 21              	83.36       	0.11        	                	;
; NFLOURS     	1           
; PRESS_DRIVEN	14.276	-1.0        
 22              	79.56       	0.11        	                	;
; NFLOURS     	1           
; PRESS_DRIVEN	14.276	-1.0        
 23              	86.89       	0.11        	                	;
; NFLOURS     	1           
; PRESS_DRIVEN	14.276	-1.0        
 24              	74.28       	0.11        	                	;
; NFLOURS     	1           
; PRESS_DRIVEN	14.276	-1.0        
 25              	79.61       	0.11        	                	;
; NFLOURS     	1           
; PRESS_DRIVEN	14.276	-1.0        
 26              	80.28       	0.11        	                	;
; NFLOURS     	1           
; PRESS_DRIVEN	14.276	-1.0        
 27              	81.53       	0.11        	                	;
; NFLOURS     	1           
; PRESS_DRIVEN	14.276	-1.0        
 28              	81.82       	0.11        	                	;
; NFLOURS     	1           
; PRESS_DRIVEN	14.276	-1.0        
 29              	81.41       	0.11        	                	;
; NFLOURS     	1           
; PRESS_DRIVEN	14.276	-1.0        
 30              	87.64       	0.11        	                	;
; NFLOURS     	1           
; PRESS_DRIVEN	14.276	-1.0        
 31              	77.93       	0.11        	                	;
; NFLOURS     	1           
; PRESS_DRIVEN	14.276	-1.0        
 32              	80.5        	0.11        	                	;
; NFLOURS     	1           
; PRESS_DRIVEN	14.276	-1.0        
 33              	83.82       	0.11        	                	;
; NFLOURS     	1           
; PRESS_DRIVEN	14.276	-1.0        
 34              	80.43       	0.11        	                	;
; NFLOURS     	1           
; PRESS_DRIVEN	14.276	-1.0        
 35              	86.89       	0.11        	                	;
; NFLOURS     	1           
; PRESS_DRIVEN	14.276	-1.0        
 36              	76.17       	0.11        	                	;
; NFLOURS     	1           
; PRESS_DRIVEN	14.276	-1.0        
 37              	76.73       	0.11        	                	;
; NFLOURS     	1           
; PRESS_DRIVEN	14.276	-1.0        
 38              	70.47       	0.11        	                	;
; NFLOURS     	1           
; PRESS_DRIVEN	14.276	-1.0        
 39              	71.11       	0.11        	                	;
; NFLOURS     	1           
; PRESS_DRIVEN	14.276	-1.0        
 40              	70.78       	0.11        	                	;
; NFLOURS     	1           
; PRESS_DRIVEN	14.276	-1.0        
 41              	71.15       	0.11        	                	;
; NFLOURS     	1           
; PRESS_DRIVEN	14.276	-1.0        
 42              	66.58       	0.11        	                	;
; NFLOURS     	1           
; PRESS_DRIVEN	14.276	-1.0        
 43              	71.04       	0.11        	                	;
; NFLOURS     	1           
; PRESS_DRIVEN	14.276	-1.0        
 44              	75.39       	0.11        	                	;
; NFLOURS     	1           
; PRESS_DRIVEN	14.276	-1.0        
 45              	70.24       	0.11        	                	;
; NFLOURS     	1           
; PRESS_DRIVEN	14.276	-1.0        
 46              	126.06      	0.11        	                	;
; NFLOURS     	1           
; PRESS_DRIVEN	14.276	-1.0        
 47              	125.84      	0.11        	                	;
; NFLOURS     	1           
; PRESS_DRIVEN	14.276	-1.0        
 48              	123.17      	0.11        	                	;
; NFLOURS     	1           
; PRESS_DRIVEN	14.276	-1.0        
 49              	124.3       	0.11        	                	;
; NFLOURS     	1           
; PRESS_DRIVEN	14.276	-1.0        
 50              	123.63      	0.11        	                	;
; NFLOURS     	1           
; PRESS_DRIVEN	14.276	-1.0        
 51              	123.3       	0.11        	                	;
; NFLOURS     	1           
; PRESS_DRIVEN	14.276	-1.0        
 52              	121.53      	0.11        	                	;
; NFLOURS     	1           
; PRESS_DRIVEN	14.276	-1.0        
 53              	119.77      	0.11        	                	;
; NFLOURS     	1           
; PRESS_DRIVEN	14.276	-1.0        
 54              	117.96      	0.11        	                	;
; NFLOURS     	1           
; PRESS_DRIVEN	14.276	-1.0        
 55              	94.12       	0.11        	                	;
; NFLOURS     	1           
; PRESS_DRIVEN	14.276	-1.0        
 56              	110.47      	0.11        	                	;
; NFLOURS     	1           
; PRESS_DRIVEN	14.276	-1.0        
 57              	93.73       	0.11        	                	;
; NFLOURS     	1           
; PRESS_DRIVEN	14.276	-1.0        
 58              	87.98       	0.11        	                	;
; NFLOURS     	1           
; PRESS_DRIVEN	14.276	-1.0        
 59              	93.73       	0.11        	                	;
; NFLOURS     	1           
; PRESS_DRIVEN	14.276	-1.0        
 60              	94.38       	0.11        	                	;
; NFLOURS     	1           
; PRESS_DRIVEN	14.276	-1.0        
 61              	109.74      	0.11        	                	;
; NFLOURS     	1           
; PRESS_DRIVEN	14.276	-1.0        
 62              	90.09       	0.11        	                	;
; NFLOURS     	1           
; PRESS_DRIVEN	14.276	-1.0        
 63              	108.75      	0.11        	                	;
; NFLOURS     	1           
; PRESS_DRIVEN	14.276	-1.0        
 64              	97.53       	0.11        	                	;
; NFLOURS     	1           
; PRESS_DRIVEN	14.276	-1.0        
 65              	113.34      	0.11        	                	;
; NFLOURS     	1           
; PRESS_DRIVEN	14.276	-1.0        
 66              	108.02      	0.11        	                	;
; NFLOURS     	1           
; PRESS_DRIVEN	14.276	-1.0        
 67              	88.56       	0.11        	                	;
; NFLOURS     	1           
; PRESS_DRIVEN	14.276	-1.0        
 68              	105.19      	0.11        	                	;
; NFLOURS     	1           
; PRESS_DRIVEN	14.276	-1.0        
 69              	104.53      	0.11        	                	;
; NFLOURS     	1           
; PRESS_DRIVEN	14.276	-1.0        
 70              	88.89       	0.11        	                	;
; NFLOURS     	1           
; PRESS_DRIVEN	14.276	-1.0        
 71              	85.27       	0.11        	                	;
; NFLOURS     	1           
; PRESS_DRIVEN	14.276	-1.0        
 72              	87.44       	0.11        	                	;
; NFLOURS     	1           
; PRESS_DRIVEN	14.276	-1.0        
 73              	90.66       	0.11        	                	;
; NFLOURS     	1           
; PRESS_DRIVEN	14.276	-1.0        
 74              	83.53       	0.11        	                	;
; NFLOURS     	1           
; PRESS_DRIVEN	14.276	-1.0        
 75              	88.79       	0.11        	                	;
; NFLOURS     	1           
; PRESS_DRIVEN	14.276	-1.0        
 76              	87.36       	0.11        	                	;
; NFLOURS     	1           
; PRESS_DRIVEN	14.276	-1.0        
 77              	86.2        	0.11        	                	;
; NFLOURS     	1           
; PRESS_DRIVEN	14.276	-1.0        
 78              	88.89       	0.11        	                	;
; NFLOURS     	1           
; PRESS_DRIVEN	14.276	-1.0        
 79              	89.14       	0.11        	                	;
; NFLOURS     	1           
; PRESS_DRIVEN	14.276	-1.0        
 80              	87.83       	0.11        	                	;
; NFLOURS     	1           
; PRESS_DRIVEN	14.276	-1.0        
 81              	90.85       	0.11        	                	;
; NFLOURS     	1           
; PRESS_DRIVEN	14.276	-1.0        
 82              	89.52       	0.11        	                	;
; NFLOURS     	1           
; PRESS_DRIVEN	14.276	-1.0        
 83              	79.73       	0.11        	                	;
; NFLOURS     	1           
; PRESS_DRIVEN	14.276	-1.0        
 84              	81.33       	0.11        	                	;
; NFLOURS     	1           
; PRESS_DRIVEN	14.276	-1.0        
 85              	74.61       	0.11        	                	;
; NFLOURS     	1           
; PRESS_DRIVEN	14.276	-1.0        
 86              	73.48       	0.11        	                	;
; NFLOURS     	1           
; PRESS_DRIVEN	14.276	-1.0        
 87              	75.87       	0.11        	                	;
; NFLOURS     	1           
; PRESS_DRIVEN	14.276	-1.0        
 88              	70.62       	0.11        	                	;
; NFLOURS     	1           
; PRESS_DRIVEN	14.276	-1.0        
 89              	74.84       	0.11        	                	;
; NFLOURS     	1           
; PRESS_DRIVEN	14.276	-1.0        
 90              	70.1        	0.11        	                	;
; NFLOURS     	1           
; PRESS_DRIVEN	14.276	-1.0        
 91              	73.65       	0.11        	                	;
; NFLOURS     	1           
; PRESS_DRIVEN	14.276	-1.0        
 92              	69.64       	0.11        	                	;
; NFLOURS     	1           
; PRESS_DRIVEN	14.276	-1.0        
 93              	74.01       	0.11        	                	;
; NFLOURS     	1           
; PRESS_DRIVEN	14.276	-1.0        
 94              	69.89       	0.11        	                	;
; NFLOURS     	1           
; PRESS_DRIVEN	14.276	-1.0        
 95              	74.89       	0.11        	                	;
; NFLOURS     	1           
; PRESS_DRIVEN	14.276	-1.0        
 96              	79.62       	0.11        	                	;
; NFLOURS     	1           
; PRESS_DRIVEN	14.276	-1.0        
 97              	70.9        	0.11        	                	;
; NFLOURS     	1           
; PRESS_DRIVEN	14.276	-1.0        
 98              	71.86       	0.11        	                	;
; NFLOURS     	1           
; PRESS_DRIVEN	14.276	-1.0        
 99              	69.79       	0.11        	                	;
; NFLOURS     	1           
; PRESS_DRIVEN	14.276	-1.0        
 100             	88.96       	0.11        	                	;
; NFLOURS     	1           
; PRESS_DRIVEN	14.276	-1.0        
 101             	79.14       	0.11        	                	;
; NFLOURS     	1           
; PRESS_DRIVEN	14.276	-1.0        
 102             	80.43       	0.11        	                	;
; NFLOURS     	1           
; PRESS_DRIVEN	14.276	-1.0        
 103             	64.8        	0.11        	                	;
; NFLOURS     	1           
; PRESS_DRIVEN	14.276	-1.0        
 104             	61.53       	0.11        	                	;
; NFLOURS     	1           
; PRESS_DRIVEN	14.276	-1.0        
 105             	61.13       	0.11        	                	;
; NFLOURS     	1           
; PRESS_DRIVEN	14.276	-1.0        
 106             	61.44       	0.11        	                	;
; NFLOURS     	1           
; PRESS_DRIVEN	14.276	-1.0        
 107             	69.93       	0.11        	                	;
; NFLOURS     	1           
; PRESS_DRIVEN	14.276	-1.0        
 108             	60.41       	0.11        	                	;
; NFLOURS     	1           
; PRESS_DRIVEN	14.276	-1.0        
 109             	57.17       	0.11        	                	;
; NFLOURS     	1           
; PRESS_DRIVEN	14.276	-1.0        
 110             	57.91       	0.11        	                	;
; NFLOURS     	1           
; PRESS_DRIVEN	14.276	-1.0        
 111             	57.92       	0.11        	                	;
; NFLOURS     	1           
; PRESS_DRIVEN	14.276	-1.0        
 112             	54.92       	0.11        	                	;
; NFLOURS     	1           
; PRESS_DRIVEN	14.276	-1.0        
 113             	60.62       	0.11        	                	;
; NFLOURS     	1           
; PRESS_DRIVEN	14.276	-1.0        
 114             	58.65       	0.11        	                	;
; NFLOURS     	1           
; PRESS_DRIVEN	14.276	-1.0        
 115             	55.76       	0.11        	                	;
; NFLOURS     	1           
; PRESS_DRIVEN	14.276	-1.0        
 116             	54.5        	0.11        	                	;
; NFLOURS     	1           
; PRESS_DRIVEN	14.276	-1.0        
 117             	56.66       	0.11        	                	;
; NFLOURS     	1           
; PRESS_DRIVEN	14.276	-1.0        
 118             	55.46       	0.11        	                	;
; NFLOURS     	1           
; PRESS_DRIVEN	14.276	-1.0        
 119             	56.02       	0.11        	                	;
; NFLOURS     	1           
; PRESS_DRIVEN	14.276	-1.0        
 120             	55.44       	0.11        	                	;
; NFLOURS     	1           
; PRESS_DRIVEN	14.276	-1.0        
 121             	55.68       	0.11        	                	;
; NFLOURS     	1           
; PRESS_DRIVEN	14.276	-1.0        
 122             	53.91       	0.11        	                	;
; NFLOURS     	1           
; PRESS_DRIVEN	14.276	-1.0        
 123             	54.76       	0.11        	                	;
; NFLOURS     	1           
; PRESS_DRIVEN	14.276	-1.0        
 124             	53.16       	0.11        	                	;
; NFLOURS     	1           
; PRESS_DRIVEN	14.276	-1.0        
 125             	55.06       	0.11        	                	;
; NFLOURS     	1           
; PRESS_DRIVEN	14.276	-1.0        
 126             	55.04       	0.11        	                	;
; NFLOURS     	1           
; PRESS_DRIVEN	14.276	-1.0        
 127             	71.44       	0.11        	                	;
; NFLOURS     	1           
; PRESS_DRIVEN	14.276	-1.0        
 128             	70.05       	0.11        	                	;
; NFLOURS     	1           
; PRESS_DRIVEN	14.276	-1.0        
 129             	68.57       	0.11        	                	;
; NFLOURS     	1           
; PRESS_DRIVEN	14.276	-1.0        
 130             	52.5        	0.11        	                	;
; NFLOURS     	1           
; PRESS_DRIVEN	14.276	-1.0        
 131             	53.58       	0.11        	                	;
; NFLOURS     	1           
; PRESS_DRIVEN	14.276	-1.0        
 132             	54.17       	0.11        	                	;
; NFLOURS     	1           
; PRESS_DRIVEN	14.276	-1.0        
 133             	61.71       	0.11        	                	;
; NFLOURS     	1           
; PRESS_DRIVEN	14.276	-1.0        
 134             	59.39       	0.11        	                	;
; NFLOURS     	1           
; PRESS_DRIVEN	14.276	-1.0        
 135             	65.27       	0.11        	                	;
; NFLOURS     	1           
; PRESS_DRIVEN	14.276	-1.0        
 136             	62.26       	0.11        	                	;
; NFLOURS     	1           
; PRESS_DRIVEN	14.276	-1.0        
 137             	58.92       	0.11        	                	;
; NFLOURS     	1           
; PRESS_DRIVEN	14.276	-1.0        
 138             	60.54       	0.11        	                	;
; NFLOURS     	1           
; PRESS_DRIVEN	14.276	-1.0        
 139             	66.19       	0.11        	                	;
; NFLOURS     	1           
; PRESS_DRIVEN	14.276	-1.0        
 140             	64.79       	0.11        	                	;
; NFLOURS     	1           
; PRESS_DRIVEN	14.276	-1.0        
 141             	66.56       	0.11        	                	;
; NFLOURS     	1           
; PRESS_DRIVEN	14.276	-1.0        
 142             	59.69       	0.11        	                	;
; NFLOURS     	1           
; PRESS_DRIVEN	14.276	-1.0        
 143             	62.11       	0.11        	                	;
; NFLOURS     	1           
; PRESS_DRIVEN	14.276	-1.0        
 144             	55.37       	0.11        	                	;
; NFLOURS     	1           
; PRESS_DRIVEN	14.276	-1.0        
 145             	56.27       	0.11        	                	;
; NFLOURS     	1           
; PRESS_DRIVEN	14.276	-1.0        
 146             	56.3        	0.11        	                	;
; NFLOURS     	1           
; PRESS_DRIVEN	14.276	-1.0        
 147             	55.65       	0.11        	                	;
; NFLOURS     	1           
; PRESS_DRIVEN	14.276	-1.0        
 148             	55.17       	0.11        	                	;
; NFLOURS     	1           
; PRESS_DRIVEN	14.276	-1.0        
 149             	55.71       	0.11        	                	;
; NFLOURS     	1           
; PRESS_DRIVEN	14.276	-1.0        
 150             	56.11       	0.11        	                	;
; NFLOURS     	1           
; PRESS_DRIVEN	14.276	-1.0        
 151             	56.58       	0.11        	                	;
; NFLOURS     	1           
; PRESS_DRIVEN	14.276	-1.0        
 152             	57.85       	0.11        	                	;
; NFLOURS     	1           
; PRESS_DRIVEN	14.276	-1.0        
 153             	56.98       	0.11        	                	;
; NFLOURS     	1           
; PRESS_DRIVEN	14.276	-1.0        
 154             	56.42       	0.11        	                	;
; NFLOURS     	1           
; PRESS_DRIVEN	14.276	-1.0        
 155             	58.46       	0.11        	                	;
; NFLOURS     	1           
; PRESS_DRIVEN	14.276	-1.0        
 156             	59.67       	0.11        	                	;
; NFLOURS     	1           
; PRESS_DRIVEN	14.276	-1.0        
 157             	55.61       	0.11        	                	;
; NFLOURS     	1           
; PRESS_DRIVEN	14.276	-1.0        
 158             	59.31       	0.11        	                	;
; NFLOURS     	1           
; PRESS_DRIVEN	14.276	-1.0        
 159             	60.52       	0.11        	                	;
; NFLOURS     	1           
; PRESS_DRIVEN	14.276	-1.0        
 160             	63.03       	0.11        	                	;
; NFLOURS     	1           
; PRESS_DRIVEN	14.276	-1.0        
 161             	60.49       	0.11        	                	;
; NFLOURS     	1           
; PRESS_DRIVEN	14.276	-1.0        
 162             	66.26       	0.11        	                	;
; NFLOURS     	1           
; PRESS_DRIVEN	14.276	-1.0        
 163             	66.7        	0.11        	                	;
; NFLOURS     	1           
; PRESS_DRIVEN	14.276	-1.0        
 164             	67.83       	0.11        	                	;
; NFLOURS     	1           
; PRESS_DRIVEN	14.276	-1.0        
 165             	68.91       	0.11        	                	;
; NFLOURS     	1           
; PRESS_DRIVEN	14.276	-1.0        
 166             	69.31       	0.11        	                	;
; NFLOURS     	1           
; PRESS_DRIVEN	14.276	-1.0        
 167             	64.81       	0.11        	                	;
; NFLOURS     	1           
; PRESS_DRIVEN	14.276	-1.0        
 168             	63.19       	0.11        	                	;
; NFLOURS     	1           
; PRESS_DRIVEN	14.276	-1.0        
 169             	64.61       	0.11        	                	;
; NFLOURS     	1           
; PRESS_DRIVEN	14.276	-1.0        
 170             	67.49       	0.11        	                	;
; NFLOURS     	1           
; PRESS_DRIVEN	14.276	-1.0        
 171             	67.77       	0.11        	                	;
; NFLOURS     	1           
; PRESS_DRIVEN	14.276	-1.0        
 172             	65.95       	0.11        	                	;
; NFLOURS     	1           
; PRESS_DRIVEN	14.276	-1.0        
 173             	68.15       	0.11        	                	;
; NFLOURS     	1           
; PRESS_DRIVEN	14.276	-1.0        
 174             	64.76       	0.11        	                	;
; NFLOURS     	1           
; PRESS_DRIVEN	14.276	-1.0        
 175             	66.42       	0.11        	                	;
; NFLOURS     	1           
; PRESS_DRIVEN	14.276	-1.0        
 176             	59.31       	0.11        	                	;
; NFLOURS     	1           
; PRESS_DRIVEN	14.276	-1.0        
 177             	62.08       	0.11        	                	;
; NFLOURS     	1           
; PRESS_DRIVEN	14.276	-1.0        
 178             	61.5        	0.11        	                	;
; NFLOURS     	1           
; PRESS_DRIVEN	14.276	-1.0        
 179             	63.18       	0.11        	                	;
; NFLOURS     	1           
; PRESS_DRIVEN	14.276	-1.0        
 180             	63.09       	0.11        	                	;
; NFLOURS     	1           
; PRESS_DRIVEN	14.276	-1.0        
 181             	62.6        	0.11        	                	;
; NFLOURS     	1           
; PRESS_DRIVEN	14.276	-1.0        
 182             	60.77       	0.11        	                	;
; NFLOURS     	1           
; PRESS_DRIVEN	14.276	-1.0        
 183             	62.56       	0.11        	                	;
; NFLOURS     	1           
; PRESS_DRIVEN	14.276	-1.0        
 184             	64.92       	0.11        	                	;
; NFLOURS     	1           
; PRESS_DRIVEN	14.276	-1.0        
 185             	65.93       	0.11        	                	;
; NFLOURS     	1           
; PRESS_DRIVEN	14.276	-1.0        
 186             	65.99       	0.11        	                	;
; NFLOURS     	1           
; PRESS_DRIVEN	14.276	-1.0        
 187             	80.68       	0.11        	                	;
; NFLOURS     	1           
; PRESS_DRIVEN	14.276	-1.0        
 188             	73.3        	0.11        	                	;
; NFLOURS     	1           
; PRESS_DRIVEN	14.276	-1.0        
 189             	83.84       	0.11        	                	;
; NFLOURS     	1           
; PRESS_DRIVEN	14.276	-1.0        
 190             	74.02       	0.11        	                	;
; NFLOURS     	1           
; PRESS_DRIVEN	14.276	-1.0        
 191             	84.07       	0.11        	                	;
; NFLOURS     	1           
; PRESS_DRIVEN	14.276	-1.0        
 192             	86.08       	0.11        	                	;
; NFLOURS     	1           
; PRESS_DRIVEN	14.276	-1.0        
 193             	90.19       	0.11        	                	;
; NFLOURS     	1           
; PRESS_DRIVEN	14.276	-1.0        
 194             	93.27       	0.11        	                	;
; NFLOURS     	1           
; PRESS_DRIVEN	14.276	-1.0        
 195             	85.21       	0.11        	                	;
; NFLOURS     	1           
; PRESS_DRIVEN	14.276	-1.0        
 196             	94.46       	0.11        	                	;
; NFLOURS     	1           
; PRESS_DRIVEN	14.276	-1.0        
 197             	83.52       	0.11        	                	;
; NFLOURS     	1           
; PRESS_DRIVEN	14.276	-1.0        
 198             	85.57       	0.11        	                	;
; NFLOURS     	1           
; PRESS_DRIVEN	14.276	-1.0        
 199             	91.76       	0.11        	                	;
; NFLOURS     	1           
; PRESS_DRIVEN	14.276	-1.0        
 200             	97.4        	0.11        	                	;
; NFLOURS     	1           
; PRESS_DRIVEN	14.276	-1.0        
 201             	95.94       	0.11        	                	;
; NFLOURS     	1           
; PRESS_DRIVEN	14.276	-1.0        
 202             	99.99       	0.11        	                	;
; NFLOURS     	1           
; PRESS_DRIVEN	14.276	-1.0        
 203             	88.44       	0.11        	                	;
; NFLOURS     	1           
; PRESS_DRIVEN	14.276	-1.0        
 204             	92.01       	0.11        	                	;
; NFLOURS     	1           
; PRESS_DRIVEN	14.276	-1.0        
 205             	86.24       	0.11        	                	;
; NFLOURS     	1           
; PRESS_DRIVEN	14.276	-1.0        
 206             	93.73       	0.11        	                	;
; NFLOURS     	1           
; PRESS_DRIVEN	14.276	-1.0        
 207             	92.89       	0.11        	                	;
; NFLOURS     	1           
; PRESS_DRIVEN	14.276	-1.0        
 208             	86.77       	0.11        	                	;
; NFLOURS     	1           
; PRESS_DRIVEN	14.276	-1.0        
 209             	90.04       	0.11        	                	;
; NFLOURS     	1           
; PRESS_DRIVEN	14.276	-1.0        
 210             	95.61       	0.11        	                	;
; NFLOURS     	1           
; PRESS_DRIVEN	14.276	-1.0        
 211             	97.4        	0.11        	                	;
; NFLOURS     	1           
; PRESS_DRIVEN	14.276	-1.0        
 212             	101.26      	0.11        	                	;
; NFLOURS     	1           
; PRESS_DRIVEN	14.276	-1.0        
 213             	97.86       	0.11        	                	;
; NFLOURS     	1           
; PRESS_DRIVEN	14.276	-1.0        
 214             	97.05       	0.11        	                	;
; NFLOURS     	1           
; PRESS_DRIVEN	14.276	-1.0        
 215             	101.17      	0.11        	                	;
; NFLOURS     	1           
; PRESS_DRIVEN	14.276	-1.0        
 216             	100.69      	0.11        	                	;
; NFLOURS     	1           
; PRESS_DRIVEN	14.276	-1.0        
 217             	99.61       	0.11        	                	;
; NFLOURS     	1           
; PRESS_DRIVEN	14.276	-1.0        
 218             	97.55       	0.11        	                	;
; NFLOURS     	1           
; PRESS_DRIVEN	14.276	-1.0        
 219             	107.04      	0.11        	                	;
; NFLOURS     	1           
; PRESS_DRIVEN	14.276	-1.0        
 220             	98.67       	0.11        	                	;
; NFLOURS     	1           
; PRESS_DRIVEN	14.276	-1.0        
 221             	110.83      	0.11        	                	;
; NFLOURS     	1           
; PRESS_DRIVEN	14.276	-1.0        
 222             	112.15      	0.11        	                	;
; NFLOURS     	1           
; PRESS_DRIVEN	14.276	-1.0        
 223             	98.64       	0.11        	                	;
; NFLOURS     	1           
; PRESS_DRIVEN	14.276	-1.0        
 224             	107.06      	0.11        	                	;
; NFLOURS     	1           
; PRESS_DRIVEN	14.276	-1.0        
 225             	98.79       	0.11        	                	;
; NFLOURS     	1           
; PRESS_DRIVEN	14.276	-1.0        
 226             	98.45       	0.11        	                	;
; NFLOURS     	1           
; PRESS_DRIVEN	14.276	-1.0        
 227             	110.57      	0.11        	                	;
; NFLOURS     	1           
; PRESS_DRIVEN	14.276	-1.0        
 228             	113.32      	0.11        	                	;
; NFLOURS     	1           
; PRESS_DRIVEN	14.276	-1.0        
 229             	114.22      	0.11        	                	;
; NFLOURS     	1           
; PRESS_DRIVEN	14.276	-1.0        
 230             	114.23      	0.11        	                	;
; NFLOURS     	1           
; PRESS_DRIVEN	14.276	-1.0        