[TITLE]
Monterusciello_acqueduct

[JUNCTIONS]
;ID Elev Demand
0 0.0 36200
1 0.0 3400
2 0.0 19000
3 0.0 1550
4 0.0 16550
5 0.0 2650
6 0.0 17050
7 0.0 3500

[RESERVOIRS]
;ID Head

[TANKS]
;ID Elev InitLvl MinLvl MaxLvl Diam Volume

[COORDINATES]
;Node       X-Coord.    Y-Coord
0 14.08763056892943 40.8710721126693
1 14.080302929943501 40.865408238672316
2 14.083405389397642 40.874714430155564
3 14.094138419238096 40.86684734188889
4 14.090794756201818 40.87538616431973
5 14.097971505057945 40.87130478953389
6 14.096170595249419 40.87368399960025
7 14.096357155723156 40.87677408678952

[PIPES]
;ID Node1 Node2 Length Diam Roughness
0 0 1 1030.15 500 130
1 0 2 620.49 500 130
2 0 3 863.03 500 130
3 0 4 595.09 500 130
4 3 5 653.91 500 130
5 4 6 627.22 500 130
6 5 6 331.91 500 130
7 6 7 344.34 500 130

[PUMPS]
;ID Node1 Node2 Parameters

[PATTERNS]
;ID   Multipliers
Pat1 [0, 1, 2, 3, 4, 5, 6, 7, 8, 9, 10, 11, 12, 13, 14, 15, 16, 17, 18, 19, 20, 21, 22, 23]
[CURVES]
;ID  X-Value  Y-Value

[QUALITY]
;Node InitQual

[REACTIONS]
Global Bulk  -1
Global Wall  0

[TIMES]
Hydraulic Timestep 1:00
Pattern Timestep 6:00

[END]