[TITLE]
Monterusciello_acqueduct_1level

[JUNCTIONS]
;ID Elev Demand
0 110 0
1 110 0
2 110 0
3 62.75266885757446 1
4 110 0
5 110 0
6 69.73830795288086 1
7 45.5688419342041 1
8 110 0
9 71.71582794189453 1
10 81.42661666870117 1
11 88.79219436645508 1
12 88.56207656860352 1
13 87.36498260498047 1
14 81.40692138671875 1
15 88.89367294311523 1
16 76.73294067382812 1
17 80.42521286010742 1
18 75.86785125732422 1
19 79.6077766418457 1
20 74.84200668334961 1
21 70.62110662380873 1
22 74.28096008300781 1
23 70.09845225016277 1
24 73.65449142456055 1
25 69.6374028523763 1
26 74.01290893554688 1
27 80.28487777709961 1
28 69.88922627766927 1
29 79.56354522705078 1
30 74.89054107666016 1
31 79.62158203125 1
32 70.89615122477214 1
33 89.52368651005452 1
34 75.52774235186533 1
35 79.73202514648438 1
36 78.85498428344727 1
37 64.80460739135742 1
38 89.14180755615234 1
39 87.73617935180664 1
40 89.56375122070312 1
41 90.51587677001953 1
42 90.84868621826172 1
43 89.07969933625964 1
44 87.69891793107328 1
45 96.6911176692851 1
46 91.1492525736491 1
47 87.51818351297509 1
48 95.16954236032257 1
49 77.62083786992406 1
50 78.24408129625851 1
51 87.98101788778933 1
52 94.38415360885266 1
53 77.3036581122668 1
54 71.84187608514931 1
55 88.95726707676414 1
56 94.11575504656764 1
57 77.65548252977378 1
58 90.09199944170716 1
59 93.73340732263388 1
60 78.41706667766383 1
61 93.7329267465471 1
62 79.1392638703145 1
63 72.9093839156653 1
64 80.42696395080641 1
65 71.63634068735101 1
66 68.07309414386924 1
67 68.03638767286145 1
68 67.04128794093099 1
69 68.54668242060991 1
70 72.67882212714228 1
71 66.39929076918548 1
72 73.47523691312458 1
73 81.52571105957031 1
74 81.82410362788704 1
75 87.64459228515625 1
76 81.32632407953155 1
77 87.44038009643555 1
78 66.58219337463379 1
79 71.04258837795518 1
80 75.39397048950195 1
81 70.23985356781546 1
82 70.77947966968448 1
83 88.88983154296875 1
84 85.26651043426796 1
85 74.60730252256087 1
86 69.43785249515284 1
87 70.46555043010848 1
88 71.15042781394452 1
89 71.11496535226469 1
90 126.06096799799128 1
91 125.8401605953441 1
92 123.16680908203125 1
93 124.2966698263201 1
94 123.62571716308594 1
95 123.30447523386891 1
96 121.53150526477991 1
97 119.76977370679828 1
98 117.95619569166296 1
99 96.30704498291016 1
100 98.2695118849928 1
101 110.46837723557674 1
102 109.73551965796003 1
103 108.7483360730431 1
104 108.01998237332788 1
105 105.83230710966869 1
106 105.19346082571535 1
107 104.52640279390067 1
108 80.6794611612956 1
109 71.43977355957031 1

[RESERVOIRS]
;ID Head

[TANKS]
;ID Elev InitLvl MinLvl MaxLvl Diam Volume

[PIPES]
;ID Node1 Node2 Length Diam Roughness
0 0 1 0.0020352055617606293 0 1 0.1
1 0 2 0.002943763399556926 0 1 0.1
2 0 3 0.0036626284091648277 0 1 0.1
3 0 22 0.0005141243643589521 0 1 0.1
4 0 19 0.00029724263165245216 0 1 0.1
5 0 29 0.00010686155948167691 0 1 0.1
6 1 4 0.0015476201727207598 1 1 0.1
7 1 74 0.00042685282203001873 1 1 0.1
8 1 80 0.00024093210544228694 1 1 0.1
9 2 5 0.004068873242310333 2 1 0.1
10 2 100 0.0011240627609930063 2 1 0.1
11 2 104 0.00043077198704921595 2 1 0.1
12 2 105 0.0005520610187639721 2 1 0.1
13 3 6 0.003327383495715406 3 1 0.1
14 4 5 0.0036757293394093725 4 1 0.1
15 4 7 0.0037132065403207015 4 1 0.1
16 4 60 5.6803984202873176e-05 4 1 0.1
17 4 62 0.00028219280544731335 4 1 0.1
18 4 70 0.0005588001859253004 4 1 0.1
19 5 93 0.0002527633799084867 5 1 0.1
20 6 9 0.004319653195727739 6 1 0.1
21 6 10 0.0019919684431247676 6 1 0.1
22 8 9 0.0021085283809349742 8 1 0.1
23 8 108 0.0007318817287013072 8 1 0.1
24 8 109 0.0007318817286940659 8 1 0.1
25 11 12 0.0002612001741840896 11 1 0.1
26 11 13 0.00022341292183153735 11 1 0.1
27 13 14 0.0008076155325435977 13 1 0.1
28 13 15 0.00027905560696050736 13 1 0.1
29 14 16 0.0006094755204323638 14 1 0.1
30 14 17 0.00032690171856310175 14 1 0.1
31 15 38 0.00026202734148713367 15 1 0.1
32 16 18 0.0003128363668112825 16 1 0.1
33 17 18 0.000613745826872112 17 1 0.1
34 17 19 0.0003149853990257134 17 1 0.1
35 18 20 0.00032468555927088 18 1 0.1
36 18 21 0.000554597991344591 18 1 0.1
37 19 39 0.0007982363879049027 19 1 0.1
38 20 22 0.00032081656379118374 20 1 0.1
39 21 23 0.0003988423473042671 21 1 0.1
40 22 24 0.0003138913952279466 22 1 0.1
41 22 25 0.0008011162817013951 22 1 0.1
42 23 25 0.00031004130627764555 23 1 0.1
43 23 37 0.0006213409240358171 23 1 0.1
44 24 26 0.00032390446122419205 24 1 0.1
45 24 27 0.0006165447111130867 24 1 0.1
46 24 28 0.0007872524080563303 24 1 0.1
47 25 28 0.00032194191339595546 25 1 0.1
48 26 30 0.0003145847021051314 26 1 0.1
49 26 31 0.0006155421317813392 26 1 0.1
50 26 32 0.0007855663977054977 26 1 0.1
51 27 33 0.0008191504646304544 27 1 0.1
52 27 29 0.00032560275735938655 27 1 0.1
53 27 31 0.00031677133708760374 27 1 0.1
54 28 32 0.00032187999999777617 28 1 0.1
55 30 34 0.00031773734561742884 30 1 0.1
56 30 35 0.0006146002551239203 30 1 0.1
57 31 35 0.00031677116850997055 31 1 0.1
58 33 41 0.00021412166514729188 33 1 0.1
59 33 42 0.0002648266900894277 33 1 0.1
60 34 36 0.0006165927164659468 34 1 0.1
61 35 36 0.0003132028665284203 35 1 0.1
62 38 39 0.0002408431288337657 38 1 0.1
63 39 40 0.00028860339523936393 39 1 0.1
64 40 41 0.00026334514102924135 40 1 0.1
65 43 44 0.00030886694870003745 43 1 0.1
66 43 45 0.0005468000618092608 43 1 0.1
67 43 46 0.0008735699556645758 43 1 0.1
68 44 47 0.0003126437928366543 44 1 0.1
69 44 48 0.0005477034358102354 44 1 0.1
70 44 49 0.0009378676175244359 44 1 0.1
71 45 48 0.0003110562553583578 45 1 0.1
72 46 50 0.0007386558597160835 46 1 0.1
73 47 51 0.00031577108797513755 47 1 0.1
74 47 52 0.0004818756009639881 47 1 0.1
75 47 53 0.0009434556837502593 47 1 0.1
76 48 52 0.000324463181272534 48 1 0.1
77 49 54 0.0006025207080169872 49 1 0.1
78 49 50 0.00032723999999717535 49 1 0.1
79 49 53 0.0003218853541244037 49 1 0.1
80 50 65 0.0006003776095075075 50 1 0.1
81 51 55 0.00031340023037600113 51 1 0.1
82 51 56 0.0004889121385252262 51 1 0.1
83 51 57 0.0009408514577786026 51 1 0.1
84 52 56 0.00031552018318694306 52 1 0.1
85 53 57 0.0003004474330065026 53 1 0.1
86 54 68 0.0005273274451507816 54 1 0.1
87 54 65 0.00030846687861033 54 1 0.1
88 55 58 0.0003084361172141009 55 1 0.1
89 55 59 0.00042041056170907993 55 1 0.1
90 55 60 0.0009444683859253629 55 1 0.1
91 56 59 0.000316809600865755 56 1 0.1
92 57 60 0.0003272449388481373 57 1 0.1
93 58 61 0.0004244124187648315 58 1 0.1
94 58 62 0.0009479039624403288 58 1 0.1
95 59 61 0.00031326097107903613 59 1 0.1
96 62 63 0.000600481922784867 62 1 0.1
97 62 64 0.00031660465820999086 62 1 0.1
98 63 69 0.000521322310276328 63 1 0.1
99 63 70 0.0003084867180278399 63 1 0.1
100 63 72 0.0003219056041773951 63 1 0.1
101 64 72 0.0006044773544181111 64 1 0.1
102 65 71 0.0005274212843704882 65 1 0.1
103 66 67 0.00056847971291987 66 1 0.1
104 66 68 0.00040156870794566866 66 1 0.1
105 67 69 0.00030970161446218703 67 1 0.1
106 67 70 0.000526402158428979 67 1 0.1
107 68 71 0.0003111264283223146 68 1 0.1
108 73 74 0.0006835529607739744 73 1 0.1
109 73 75 0.0006127494766363288 73 1 0.1
110 74 76 0.0005409947005283512 74 1 0.1
111 75 77 0.00022339244043785596 75 1 0.1
112 76 84 0.0005643235873194484 76 1 0.1
113 76 85 0.0006126318127558523 76 1 0.1
114 77 83 0.0002328605404525319 77 1 0.1
115 78 79 0.0005192684173015485 78 1 0.1
116 79 80 0.0005514515768295734 79 1 0.1
117 79 81 0.0003299994242425271 79 1 0.1
118 79 82 0.00030040000000042255 79 1 0.1
119 80 85 0.0004092516458140955 80 1 0.1
120 81 85 0.0005174499071310076 81 1 0.1
121 81 86 0.0003031269232517302 81 1 0.1
122 82 87 0.0004439046875162345 82 1 0.1
123 83 84 0.0009102092764455542 83 1 0.1
124 87 88 0.00028972844803510224 87 1 0.1
125 88 89 0.00032194241721301726 88 1 0.1
126 90 91 0.00033018322792112263 90 1 0.1
127 90 92 0.0005682420896081051 90 1 0.1
128 91 93 0.0003311523105766873 91 1 0.1
129 92 94 0.00033155505907719206 92 1 0.1
130 93 95 0.00032028940538076555 93 1 0.1
131 95 96 0.000332600580879456 95 1 0.1
132 96 97 0.000568404163253157 96 1 0.1
133 97 98 0.0003345000597899624 97 1 0.1
134 99 100 0.0004215763744798706 99 1 0.1
135 101 102 0.00032662024493203924 101 1 0.1
136 102 103 0.00032839596830805726 102 1 0.1
137 103 104 0.0003410452925899877 103 1 0.1
138 105 106 0.000300844092514795 105 1 0.1
139 106 107 0.00024998020481761416 106 1 0.1

[PUMPS]
;ID Node1 Node2 Parameters

[PATTERNS]
;ID   Multipliers

[CURVES]
;ID  X-Value  Y-Value

[QUALITY]
;Node InitQual

[REACTIONS]
Global Bulk  -1
Global Wall  0

[END]